Circuit: * C:\git\Draft2.asc

Direct Newton iteration failed to find .op point.  (Use ".option noopiter" to skip.)
Starting Gmin stepping
Gmin = 10
Gmin = 1.07374
Gmin = 0.115292
Gmin = 0.0123794
Gmin = 0.00132923
Gmin = 0.000142725
Gmin = 1.5325e-005
Gmin = 1.6455e-006
Gmin = 1.76685e-007
Gmin = 1.89714e-008
vernier = 0.5
vernier = 0.25
Gmin = 5.50669e-009
vernier = 0.333333
vernier = 0.444444
Gmin = 2.55608e-009
vernier = 0.222222
vernier = 0.111111
vernier = 0.148148
Gmin = 2.22051e-009
vernier = 0.197531
vernier = 0.263374
Gmin = 1.39886e-009
vernier = 0.131687
vernier = 0.0658435
vernier = 0.0877914
Gmin = 1.28744e-009
vernier = 0.117055
vernier = 0.156073
Gmin = 9.76467e-010
vernier = 0.0780367
vernier = 0.0390184
vernier = 0.0520245
Gmin = 9.29748e-010
vernier = 0.0693659
vernier = 0.0924879
Gmin = 7.88499e-010
vernier = 0.123317
vernier = 0.0616586
vernier = 0.0308293
Gmin = 6.9262e-010
vernier = 0.0411057
vernier = 0.0548076
Gmin = 6.27972e-010
vernier = 0.0730768
vernier = 0.0365384
Gmin = 5.5565e-010
vernier = 0.0182692
vernier = 0.0243589
Gmin = 5.30102e-010
vernier = 0.0324786
vernier = 0.0433047
Gmin = 4.8827e-010
vernier = 0.0577396
vernier = 0.0288698
Gmin = 4.41629e-010
vernier = 0.0144349
vernier = 0.0192465
Gmin = 4.25497e-010
vernier = 0.025662
vernier = 0.0342161
Gmin = 3.98718e-010
vernier = 0.0456214
Gmin = 3.60012e-010
vernier = 0.0608285
vernier = 0.0304143
vernier = 0.0152071
vernier = 0.0202762
Gmin = 3.49692e-010
vernier = 0.0270349
Gmin = 3.29117e-010
vernier = 0.0360465
vernier = 0.048062
vernier = 0.024031
vernier = 0.0120155
Gmin = 3.10935e-010
vernier = 0.0160207
Gmin = 2.99947e-010
vernier = 0.0213609
vernier = 0.0284812
Gmin = 2.82384e-010
vernier = 0.0379749
vernier = 0.0189874
vernier = 0.00949371
Gmin = 2.75125e-010
vernier = 0.0126583
vernier = 0.0168777
Gmin = 2.6545e-010
vernier = 0.0225036
vernier = 0.0300048
Gmin = 2.50735e-010
vernier = 0.0400064
vernier = 0.0200032
vernier = 0.0100016
Gmin = 2.41535e-010
vernier = 0.0133355
vernier = 0.0177806
Gmin = 2.33499e-010
vernier = 0.0237075
Gmin = 2.21402e-010
vernier = 0.03161
vernier = 0.015805
vernier = 0.00790249
vernier = 0.0105366
Gmin = 2.18077e-010
vernier = 0.0140489
Gmin = 2.11303e-010
vernier = 0.0187318
vernier = 0.0249757
Gmin = 2.00409e-010
vernier = 0.033301
vernier = 0.0166505
vernier = 0.00832524
Gmin = 1.95883e-010
vernier = 0.0111003
vernier = 0.0148004
Gmin = 1.89827e-010
vernier = 0.0197339
vernier = 0.0263119
vernier = 0.0131559
Gmin = 1.82948e-010
vernier = 0.00657796
vernier = 0.00877062
Gmin = 1.79868e-010
vernier = 0.0116942
vernier = 0.0155922
Gmin = 1.74609e-010
vernier = 0.0207896
Gmin = 1.66648e-010
vernier = 0.0277195
vernier = 0.0138597
vernier = 0.00692986
vernier = 0.00923982
Gmin = 1.64451e-010
vernier = 0.0123198
Gmin = 1.59961e-010
vernier = 0.0164263
vernier = 0.0219018
vernier = 0.0109509
vernier = 0.00547544
Gmin = 1.55863e-010
vernier = 0.00730059
Gmin = 1.53325e-010
vernier = 0.00973411
vernier = 0.0129788
Gmin = 1.4916e-010
vernier = 0.0173051
vernier = 0.0230734
vernier = 0.0115367
Gmin = 1.44408e-010
vernier = 0.00576836
vernier = 0.00769114
Gmin = 1.42273e-010
vernier = 0.0102549
vernier = 0.0136731
Gmin = 1.38618e-010
vernier = 0.0182308
vernier = 0.00911542
vernier = 0.00455771
Gmin = 1.36272e-010
vernier = 0.00607695
vernier = 0.00810259
Gmin = 1.34185e-010
vernier = 0.0108035
Gmin = 1.30967e-010
vernier = 0.0144046
vernier = 0.0192061
vernier = 0.00960307
vernier = 0.00480153
Gmin = 1.28019e-010
vernier = 0.00640204
Gmin = 1.26189e-010
vernier = 0.00853606
vernier = 0.0113814
Gmin = 1.23178e-010
vernier = 0.0151752
vernier = 0.0202336
vernier = 0.0101168
Gmin = 1.19728e-010
vernier = 0.0050584
vernier = 0.00674453
Gmin = 1.18175e-010
vernier = 0.00899271
vernier = 0.0119903
Gmin = 1.15508e-010
vernier = 0.015987
vernier = 0.00799351
vernier = 0.00399676
Gmin = 1.13792e-010
vernier = 0.00532901
vernier = 0.00710534
Gmin = 1.12262e-010
vernier = 0.00947379
Gmin = 1.09897e-010
vernier = 0.0126317
vernier = 0.0168423
vernier = 0.00842114
vernier = 0.00421057
Gmin = 1.07724e-010
vernier = 0.00561409
Gmin = 1.06373e-010
vernier = 0.00748545
vernier = 0.0099806
Gmin = 1.04143e-010
vernier = 0.0133075
vernier = 0.0177433
vernier = 0.00887164
Gmin = 1.0158e-010
vernier = 0.00443582
vernier = 0.00591443
Gmin = 1.00424e-010
vernier = 0.0078859
vernier = 0.0105145
Gmin = 9.84329e-011
vernier = 0.0140194
vernier = 0.00700968
vernier = 0.00350484
Gmin = 9.71491e-011
vernier = 0.00467312
vernier = 0.00623083
Gmin = 9.60027e-011
vernier = 0.00830777
Gmin = 9.42266e-011
vernier = 0.011077
vernier = 0.0147694
vernier = 0.00738468
vernier = 0.00369234
Gmin = 9.25905e-011
vernier = 0.00492312
Gmin = 9.15711e-011
vernier = 0.00656416
vernier = 0.00875221
Gmin = 8.98854e-011
vernier = 0.0116696
vernier = 0.0058348
vernier = 0.0029174
Gmin = 8.83921e-011
vernier = 0.00388987
Gmin = 8.76222e-011
vernier = 0.00518649
vernier = 0.00691532
Gmin = 8.63449e-011
vernier = 0.00922042
vernier = 0.0122939
vernier = 0.00614694
Gmin = 8.48666e-011
vernier = 0.00307347
vernier = 0.00409796
Gmin = 8.41957e-011
vernier = 0.00546395
vernier = 0.00728526
Gmin = 8.30354e-011
vernier = 0.00971368
Gmin = 8.12422e-011
vernier = 0.0129516
vernier = 0.00647579
vernier = 0.00323789
vernier = 0.00431719
Gmin = 8.07398e-011
vernier = 0.00575625
Gmin = 7.97016e-011
vernier = 0.007675
vernier = 0.0102333
Gmin = 7.7989e-011
vernier = 0.0136444
vernier = 0.00682222
vernier = 0.00341111
Gmin = 7.72615e-011
vernier = 0.00454814
vernier = 0.00606419
Gmin = 7.62729e-011
vernier = 0.00808559
vernier = 0.0107808
vernier = 0.00539039
Gmin = 7.51263e-011
vernier = 0.00269519
vernier = 0.00359359
Gmin = 7.46053e-011
vernier = 0.00479145
vernier = 0.0063886
Gmin = 7.37028e-011
vernier = 0.00851814
Gmin = 7.2305e-011
vernier = 0.0113575
vernier = 0.00567876
vernier = 0.00283938
vernier = 0.00378584
Gmin = 7.19128e-011
vernier = 0.00504778
Gmin = 7.11011e-011
vernier = 0.00673037
vernier = 0.00897383
Gmin = 6.97594e-011
vernier = 0.0119651
vernier = 0.00598255
vernier = 0.00299128
Gmin = 6.91883e-011
vernier = 0.00398837
vernier = 0.00531782
Gmin = 6.84113e-011
vernier = 0.00709043
vernier = 0.0094539
vernier = 0.00472695
Gmin = 6.75086e-011
vernier = 0.00236347
vernier = 0.0031513
Gmin = 6.70978e-011
vernier = 0.00420173
vernier = 0.00560231
Gmin = 6.63855e-011
vernier = 0.00746974
Gmin = 6.528e-011
vernier = 0.00995965
vernier = 0.00497983
vernier = 0.00248991
vernier = 0.00331988
Gmin = 6.49693e-011
vernier = 0.00442651
Gmin = 6.43258e-011
vernier = 0.00590201
vernier = 0.00786935
Gmin = 6.32599e-011
vernier = 0.0104925
vernier = 0.00524623
vernier = 0.00262311
Gmin = 6.28056e-011
vernier = 0.00349749
vernier = 0.00466331
Gmin = 6.21866e-011
vernier = 0.00621775
vernier = 0.00829033
vernier = 0.00414516
Gmin = 6.14663e-011
vernier = 0.00207258
vernier = 0.00276344
Gmin = 6.11382e-011
vernier = 0.00368459
vernier = 0.00491278
Gmin = 6.05686e-011
vernier = 0.00655038
Gmin = 5.96831e-011
vernier = 0.00873383
vernier = 0.00436692
vernier = 0.00218346
vernier = 0.00291128
Gmin = 5.94339e-011
vernier = 0.0038817
Gmin = 5.89173e-011
vernier = 0.0051756
vernier = 0.0069008
Gmin = 5.80603e-011
vernier = 0.00920106
vernier = 0.00460053
vernier = 0.00230027
Gmin = 5.76944e-011
vernier = 0.00306702
vernier = 0.00408936
Gmin = 5.71954e-011
vernier = 0.00545248
vernier = 0.00726997
Gmin = 5.64088e-011
vernier = 0.00969329
vernier = 0.00484665
vernier = 0.00242332
Gmin = 5.58989e-011
vernier = 0.0032311
vernier = 0.00430813
Gmin = 5.54419e-011
vernier = 0.00574417
Gmin = 5.47305e-011
vernier = 0.00765889
vernier = 0.00382944
vernier = 0.00191472
vernier = 0.00255296
Gmin = 5.453e-011
vernier = 0.00340395
Gmin = 5.41142e-011
vernier = 0.0045386
vernier = 0.00605146
Gmin = 5.34232e-011
vernier = 0.00806861
vernier = 0.00403431
vernier = 0.00201715
Gmin = 5.31278e-011
vernier = 0.00268954
vernier = 0.00358605
Gmin = 5.27247e-011
vernier = 0.0047814
vernier = 0.00637519
Gmin = 5.20882e-011
vernier = 0.00850026
vernier = 0.00425013
vernier = 0.00212506
Gmin = 5.1675e-011
vernier = 0.00283342
vernier = 0.00377789
Gmin = 5.13044e-011
vernier = 0.00503719
Gmin = 5.07265e-011
vernier = 0.00671625
vernier = 0.00335812
vernier = 0.00167906
Gmin = 5.04506e-011
vernier = 0.00223875
vernier = 0.002985
Gmin = 5.01317e-011
vernier = 0.00397999
vernier = 0.00530666
Gmin = 4.96274e-011
vernier = 0.00707554
vernier = 0.00353777
vernier = 0.00176889
Gmin = 4.92995e-011
vernier = 0.00235851
vernier = 0.00314468
Gmin = 4.90049e-011
vernier = 0.00419291
Gmin = 4.8545e-011
vernier = 0.00559055
vernier = 0.00745406
vernier = 0.00372703
vernier = 0.00186351
Gmin = 4.81175e-011
vernier = 0.00248469
Gmin = 4.78493e-011
vernier = 0.00331291
vernier = 0.00441722
Gmin = 4.74025e-011
vernier = 0.00588962
vernier = 0.00785283
vernier = 0.00392641
Gmin = 4.68823e-011
vernier = 0.00196321
vernier = 0.00261761
Gmin = 4.66452e-011
vernier = 0.00349014
vernier = 0.00465352
Gmin = 4.62334e-011
vernier = 0.0062047
vernier = 0.00310235
vernier = 0.00155117
Gmin = 4.59654e-011
vernier = 0.00206823
vernier = 0.00275764
Gmin = 4.57245e-011
vernier = 0.00367685
Gmin = 4.53479e-011
vernier = 0.00490247
vernier = 0.00653663
vernier = 0.00326831
vernier = 0.00163416
Gmin = 4.49975e-011
vernier = 0.00217887
Gmin = 4.47775e-011
vernier = 0.00290517
vernier = 0.00387355
Gmin = 4.44105e-011
vernier = 0.00516474
vernier = 0.00688631
vernier = 0.00344316
Gmin = 4.39828e-011
vernier = 0.00172158
vernier = 0.00229544
Gmin = 4.37877e-011
vernier = 0.00306058
vernier = 0.00408078
Gmin = 4.34485e-011
vernier = 0.00544103
Gmin = 4.29202e-011
vernier = 0.00725471
vernier = 0.00362735
vernier = 0.00181368
vernier = 0.00241824
Gmin = 4.27713e-011
vernier = 0.00322431
Gmin = 4.24622e-011
vernier = 0.00429908
vernier = 0.00573211
vernier = 0.00286605
vernier = 0.00143303
Gmin = 4.21743e-011
vernier = 0.0019107
Gmin = 4.19934e-011
vernier = 0.0025476
vernier = 0.0033968
Gmin = 4.16915e-011
vernier = 0.00452907
vernier = 0.00603876
vernier = 0.00301938
Gmin = 4.13392e-011
vernier = 0.00150969
vernier = 0.00201292
Gmin = 4.11783e-011
vernier = 0.00268389
vernier = 0.00357852
Gmin = 4.08984e-011
vernier = 0.00477136
Gmin = 4.0462e-011
vernier = 0.00636181
vernier = 0.00318091
vernier = 0.00159045
vernier = 0.0021206
Gmin = 4.03388e-011
vernier = 0.00282747
Gmin = 4.00831e-011
vernier = 0.00376996
vernier = 0.00502661
Gmin = 3.96575e-011
vernier = 0.00670215
vernier = 0.00335107
vernier = 0.00167554
Gmin = 3.94752e-011
vernier = 0.00223405
vernier = 0.00297873
Gmin = 3.92262e-011
vernier = 0.00397164
vernier = 0.00529552
vernier = 0.00264776
Gmin = 3.89353e-011
vernier = 0.00132388
vernier = 0.00176517
Gmin = 3.88024e-011
vernier = 0.00235356
vernier = 0.00313808
Gmin = 3.85711e-011
vernier = 0.00418411
Gmin = 3.82098e-011
vernier = 0.00557881
vernier = 0.00278941
vernier = 0.0013947
vernier = 0.0018596
Gmin = 3.81079e-011
vernier = 0.00247947
Gmin = 3.78959e-011
vernier = 0.00330596
vernier = 0.00440794
Gmin = 3.75428e-011
vernier = 0.00587726
vernier = 0.00293863
vernier = 0.00146931
Gmin = 3.73914e-011
vernier = 0.00195909
vernier = 0.00261211
Gmin = 3.71845e-011
vernier = 0.00348282
vernier = 0.00464375
Gmin = 3.6857e-011
vernier = 0.00619167
vernier = 0.00309584
vernier = 0.00154792
Gmin = 3.66437e-011
vernier = 0.00206389
vernier = 0.00275185
Gmin = 3.64521e-011
vernier = 0.00366914
Gmin = 3.61525e-011
vernier = 0.00489218
vernier = 0.00244609
vernier = 0.00122304
vernier = 0.00163073
Gmin = 3.60679e-011
vernier = 0.0021743
Gmin = 3.58919e-011
vernier = 0.00289907
vernier = 0.00386542
Gmin = 3.55984e-011
vernier = 0.0051539
vernier = 0.00257695
vernier = 0.00128847
Gmin = 3.54725e-011
vernier = 0.00171796
vernier = 0.00229062
Gmin = 3.53003e-011
vernier = 0.00305416
vernier = 0.00407221
Gmin = 3.50275e-011
vernier = 0.00542961
vernier = 0.00271481
vernier = 0.0013574
Gmin = 3.48497e-011
vernier = 0.00180987
vernier = 0.00241316
Gmin = 3.46898e-011
vernier = 0.00321754
Gmin = 3.44397e-011
vernier = 0.00429006
vernier = 0.00572008
vernier = 0.00286004
vernier = 0.00143002
Gmin = 3.42067e-011
vernier = 0.00190669
Gmin = 3.40603e-011
vernier = 0.00254226
vernier = 0.00338967
Gmin = 3.38159e-011
vernier = 0.00451956
vernier = 0.00225978
vernier = 0.00112989
Gmin = 3.36825e-011
vernier = 0.00150652
vernier = 0.00200869
Gmin = 3.35464e-011
vernier = 0.00267826
vernier = 0.00357101
Gmin = 3.33319e-011
vernier = 0.00476134
vernier = 0.00238067
vernier = 0.00119034
Gmin = 3.31638e-011
vernier = 0.00158711
vernier = 0.00211615
Gmin = 3.30379e-011
vernier = 0.00282153
Gmin = 3.28347e-011
vernier = 0.00376205
vernier = 0.00501606
vernier = 0.00250803
vernier = 0.00125401
Gmin = 3.2627e-011
vernier = 0.00167202
Gmin = 3.25079e-011
vernier = 0.00222936
vernier = 0.00297248
Gmin = 3.23138e-011
vernier = 0.0039633
vernier = 0.0052844
Gmin = 3.20086e-011
vernier = 0.0026422
vernier = 0.0013211
vernier = 0.00176147
Gmin = 3.19557e-011
vernier = 0.00234862
vernier = 0.0031315
Gmin = 3.17765e-011
vernier = 0.00417533
Gmin = 3.14877e-011
vernier = 0.0055671
vernier = 0.00278355
vernier = 0.00139177
vernier = 0.0018557
Gmin = 3.13857e-011
vernier = 0.00247427
Gmin = 3.12163e-011
vernier = 0.00329902
vernier = 0.00439869
vernier = 0.00219935
vernier = 0.00109967
Gmin = 3.10431e-011
vernier = 0.00146623
Gmin = 3.09437e-011
vernier = 0.00195497
vernier = 0.00260663
Gmin = 3.07816e-011
vernier = 0.00347551
vernier = 0.00463401
Gmin = 3.05264e-011
vernier = 0.002317
vernier = 0.0011585
vernier = 0.00154467
Gmin = 3.04822e-011
vernier = 0.00205956
vernier = 0.00274608
Gmin = 3.03322e-011
vernier = 0.00366143
Gmin = 3.00904e-011
vernier = 0.00488191
vernier = 0.00244096
vernier = 0.00122048
vernier = 0.0016273
Gmin = 3.00048e-011
vernier = 0.00216974
Gmin = 2.98628e-011
vernier = 0.00289298
vernier = 0.00385731
Gmin = 2.96316e-011
vernier = 0.00514308
vernier = 0.00257154
vernier = 0.00128577
Gmin = 2.95081e-011
vernier = 0.00171436
vernier = 0.00228581
Gmin = 2.93725e-011
vernier = 0.00304775
vernier = 0.00406366
Gmin = 2.91588e-011
vernier = 0.00203183
vernier = 0.00101592
vernier = 0.00135455
Gmin = 2.91218e-011
vernier = 0.00180607
vernier = 0.00240809
Gmin = 2.89961e-011
vernier = 0.00321079
Gmin = 2.87933e-011
vernier = 0.00428105
vernier = 0.00214053
vernier = 0.00107026
vernier = 0.00142702
Gmin = 2.87215e-011
vernier = 0.00190269
Gmin = 2.86022e-011
vernier = 0.00253692
vernier = 0.00338256
Gmin = 2.84079e-011
vernier = 0.00451008
vernier = 0.00225504
vernier = 0.00112752
Gmin = 2.8304e-011
vernier = 0.00150336
vernier = 0.00200448
Gmin = 2.81899e-011
vernier = 0.00267264
vernier = 0.00356351
Gmin = 2.80101e-011
vernier = 0.00475135
vernier = 0.00237567
vernier = 0.00118784
Gmin = 2.78691e-011
vernier = 0.00158378
vernier = 0.00211171
Gmin = 2.77635e-011
vernier = 0.00281561
Gmin = 2.75931e-011
vernier = 0.00375415
vernier = 0.00187707
vernier = 0.000938537
vernier = 0.00125138
Gmin = 2.75328e-011
vernier = 0.00166851
Gmin = 2.74325e-011
vernier = 0.00222468
vernier = 0.00296624
Gmin = 2.7269e-011
vernier = 0.00395498
vernier = 0.00197749
vernier = 0.000988746
Gmin = 2.71816e-011
vernier = 0.00131833
vernier = 0.00175777
Gmin = 2.70854e-011
vernier = 0.00234369
vernier = 0.00312492
Gmin = 2.69338e-011
vernier = 0.00416656
vernier = 0.00208328
vernier = 0.00104164
Gmin = 2.68149e-011
vernier = 0.00138885
vernier = 0.0018518
Gmin = 2.67258e-011
vernier = 0.00246907
Gmin = 2.65819e-011
vernier = 0.00329209
vernier = 0.00438946
vernier = 0.00219473
vernier = 0.00109736
Gmin = 2.64347e-011
vernier = 0.00146315
Gmin = 2.63502e-011
vernier = 0.00195087
vernier = 0.00260116
Gmin = 2.62125e-011
vernier = 0.00346821
vernier = 0.00462428
Gmin = 2.59957e-011
vernier = 0.00231214
vernier = 0.00115607
vernier = 0.00154143
Gmin = 2.59581e-011
vernier = 0.00205523
vernier = 0.00274031
Gmin = 2.58307e-011
vernier = 0.00365375
vernier = 0.00182687
vernier = 0.000913437
Gmin = 2.57306e-011
vernier = 0.00121792
vernier = 0.00162389
Gmin = 2.56557e-011
vernier = 0.00216518
Gmin = 2.55345e-011
vernier = 0.00288691
vernier = 0.00384921
vernier = 0.00192461
vernier = 0.000962303
Gmin = 2.54104e-011
vernier = 0.00128307
Gmin = 2.53392e-011
vernier = 0.00171076
vernier = 0.00228101
Gmin = 2.5223e-011
vernier = 0.00304135
vernier = 0.00405513
Gmin = 2.50399e-011
vernier = 0.00202757
vernier = 0.00101378
vernier = 0.00135171
Gmin = 2.50082e-011
vernier = 0.00180228
vernier = 0.00240304
Gmin = 2.49005e-011
vernier = 0.00320405
Gmin = 2.47266e-011
vernier = 0.00427207
vernier = 0.00213603
vernier = 0.00106802
vernier = 0.00142402
Gmin = 2.46651e-011
vernier = 0.0018987
Gmin = 2.45629e-011
vernier = 0.00253159
vernier = 0.00337546
vernier = 0.00168773
vernier = 0.000843864
Gmin = 2.44582e-011
vernier = 0.00112515
Gmin = 2.43981e-011
vernier = 0.0015002
vernier = 0.00200027
Gmin = 2.43e-011
vernier = 0.00266702
vernier = 0.00355603
Gmin = 2.41452e-011
vernier = 0.00177802
vernier = 0.000889008
vernier = 0.00118534
Gmin = 2.41184e-011
vernier = 0.00158046
vernier = 0.00210728
Gmin = 2.40273e-011
vernier = 0.0028097
Gmin = 2.38801e-011
vernier = 0.00374627
vernier = 0.00187313
vernier = 0.000936567
vernier = 0.00124876
Gmin = 2.3828e-011
vernier = 0.00166501
Gmin = 2.37414e-011
vernier = 0.00222001
vernier = 0.00296001
Gmin = 2.36002e-011
vernier = 0.00394668
vernier = 0.00197334
vernier = 0.00098667
Gmin = 2.35247e-011
vernier = 0.00131556
vernier = 0.00175408
Gmin = 2.34416e-011
vernier = 0.00233877
vernier = 0.00311836
Gmin = 2.33107e-011
vernier = 0.00415781
vernier = 0.00207891
vernier = 0.00103945
Gmin = 2.3208e-011
vernier = 0.00138594
vernier = 0.00184792
Gmin = 2.31311e-011
vernier = 0.00246389
Gmin = 2.30068e-011
vernier = 0.00328518
vernier = 0.00164259
vernier = 0.000821296
vernier = 0.00109506
Gmin = 2.29627e-011
vernier = 0.00146008
Gmin = 2.28895e-011
vernier = 0.00194677
vernier = 0.0025957
Gmin = 2.27701e-011
vernier = 0.00346093
vernier = 0.00173046
vernier = 0.000865232
Gmin = 2.27062e-011
vernier = 0.00115364
vernier = 0.00153819
Gmin = 2.26359e-011
vernier = 0.00205092
vernier = 0.00273456
Gmin = 2.2525e-011
vernier = 0.00364608
vernier = 0.00182304
vernier = 0.000911519
Gmin = 2.24379e-011
vernier = 0.00121536
vernier = 0.00162048
Gmin = 2.23727e-011
vernier = 0.00216064
Gmin = 2.22672e-011
vernier = 0.00288085
vernier = 0.00384113
vernier = 0.00192057
vernier = 0.000960283
Gmin = 2.21593e-011
vernier = 0.00128038
Gmin = 2.20973e-011
vernier = 0.00170717
vernier = 0.00227622
Gmin = 2.19962e-011
vernier = 0.00303496
vernier = 0.00151748
vernier = 0.000758741
Gmin = 2.1942e-011
vernier = 0.00101165
vernier = 0.00134887
Gmin = 2.18824e-011
vernier = 0.0017985
vernier = 0.00239799
Gmin = 2.17884e-011
vernier = 0.00319732
vernier = 0.00159866
vernier = 0.000799331
Gmin = 2.17145e-011
vernier = 0.00106577
vernier = 0.00142103
Gmin = 2.16591e-011
vernier = 0.00189471
Gmin = 2.15696e-011
vernier = 0.00252628
vernier = 0.00336837
vernier = 0.00168419
vernier = 0.000842093
Gmin = 2.14778e-011
vernier = 0.00112279
Gmin = 2.14252e-011
vernier = 0.00149705
vernier = 0.00199607
Gmin = 2.13391e-011
vernier = 0.00266143
vernier = 0.00354857
Gmin = 2.12036e-011
vernier = 0.00177428
vernier = 0.000887142
vernier = 0.00118286
Gmin = 2.118e-011
vernier = 0.00157714
vernier = 0.00210285
Gmin = 2.11002e-011
vernier = 0.0028038
Gmin = 2.09712e-011
vernier = 0.0037384
vernier = 0.0018692
vernier = 0.000934601
vernier = 0.00124613
Gmin = 2.09255e-011
vernier = 0.00166151
Gmin = 2.08496e-011
vernier = 0.00221535
vernier = 0.0029538
vernier = 0.0014769
vernier = 0.000738449
Gmin = 2.07719e-011
vernier = 0.000984599
Gmin = 2.07272e-011
vernier = 0.0013128
vernier = 0.0017504
Gmin = 2.06542e-011
vernier = 0.00233386
vernier = 0.00311182
Gmin = 2.0539e-011
vernier = 0.00155591
vernier = 0.000777954
vernier = 0.00103727
Gmin = 2.05191e-011
vernier = 0.00138303
vernier = 0.00184404
Gmin = 2.04512e-011
vernier = 0.00245872
Gmin = 2.03415e-011
vernier = 0.00327829
vernier = 0.00163914
vernier = 0.000819572
vernier = 0.00109276
Gmin = 2.03027e-011
vernier = 0.00145702
Gmin = 2.02381e-011
vernier = 0.00194269
vernier = 0.00259025
Gmin = 2.01327e-011
vernier = 0.00345366
vernier = 0.00172683
vernier = 0.000863416
Gmin = 2.00763e-011
vernier = 0.00115122
vernier = 0.00153496
Gmin = 2.00143e-011
vernier = 0.00204661
vernier = 0.00272882
Gmin = 1.99165e-011
vernier = 0.00136441
vernier = 0.000682205
vernier = 0.000909606
Gmin = 1.98814e-011
vernier = 0.00121281
Gmin = 1.98287e-011
vernier = 0.00161708
vernier = 0.0021561
Gmin = 1.97428e-011
vernier = 0.0028748
vernier = 0.0014374
vernier = 0.0007187
Gmin = 1.96967e-011
vernier = 0.000958267
vernier = 0.00127769
Gmin = 1.96461e-011
vernier = 0.00170358
vernier = 0.00227145
Gmin = 1.9566e-011
vernier = 0.00302859
vernier = 0.0015143
vernier = 0.000757148
Gmin = 1.95032e-011
vernier = 0.00100953
vernier = 0.00134604
Gmin = 1.94561e-011
vernier = 0.00179472
Gmin = 1.93799e-011
vernier = 0.00239296
vernier = 0.00319061
vernier = 0.00159531
vernier = 0.000797653
Gmin = 1.93018e-011
vernier = 0.00106354
Gmin = 1.92569e-011
vernier = 0.00141805
vernier = 0.00189073
Gmin = 1.91837e-011
vernier = 0.00252098
vernier = 0.0033613
Gmin = 1.90682e-011
vernier = 0.00168065
vernier = 0.000840325
vernier = 0.00112043
Gmin = 1.90482e-011
vernier = 0.00149391
vernier = 0.00199188
Gmin = 1.89802e-011
vernier = 0.00265584
vernier = 0.00132792
vernier = 0.00066396
Gmin = 1.89267e-011
vernier = 0.00088528
vernier = 0.00118037
Gmin = 1.88866e-011
vernier = 0.00157383
Gmin = 1.88217e-011
vernier = 0.00209844
vernier = 0.00279792
vernier = 0.00139896
vernier = 0.000699479
Gmin = 1.87552e-011
vernier = 0.000932639
Gmin = 1.8717e-011
vernier = 0.00124352
vernier = 0.00165802
Gmin = 1.86545e-011
vernier = 0.0022107
vernier = 0.0029476
Gmin = 1.8556e-011
vernier = 0.0014738
vernier = 0.000736899
vernier = 0.000982532
Gmin = 1.85389e-011
vernier = 0.00131004
vernier = 0.00174672
Gmin = 1.84808e-011
vernier = 0.00232896
Gmin = 1.8387e-011
vernier = 0.00310528
vernier = 0.00155264
vernier = 0.000776321
vernier = 0.00103509
Gmin = 1.83537e-011
vernier = 0.00138013
Gmin = 1.82984e-011
vernier = 0.00184017
vernier = 0.00245355
Gmin = 1.82081e-011
vernier = 0.00327141
vernier = 0.0016357
vernier = 0.000817851
Gmin = 1.81598e-011
vernier = 0.00109047
vernier = 0.00145396
Gmin = 1.81067e-011
vernier = 0.00193861
vernier = 0.00258481
Gmin = 1.80228e-011
vernier = 0.00129241
vernier = 0.000646203
vernier = 0.000861604
Gmin = 1.80082e-011
vernier = 0.0011488
vernier = 0.00153174
Gmin = 1.79587e-011
vernier = 0.00204232
Gmin = 1.78787e-011
vernier = 0.00272309
vernier = 0.00136155
vernier = 0.000680773
vernier = 0.000907697
Gmin = 1.78503e-011
vernier = 0.00121026
Gmin = 1.78031e-011
vernier = 0.00161368
vernier = 0.00215158
Gmin = 1.77261e-011
vernier = 0.00286877
vernier = 0.00143438
vernier = 0.000717192
Gmin = 1.76849e-011
vernier = 0.000956255
vernier = 0.00127501
Gmin = 1.76395e-011
vernier = 0.00170001
vernier = 0.00226668
Gmin = 1.75678e-011
vernier = 0.00302224
vernier = 0.00151112
vernier = 0.000755559
Gmin = 1.75115e-011
vernier = 0.00100741
vernier = 0.00134322
Gmin = 1.74693e-011
vernier = 0.00179095
Gmin = 1.7401e-011
vernier = 0.00238794
vernier = 0.00119397
vernier = 0.000596984
vernier = 0.000795979
Gmin = 1.73768e-011
vernier = 0.0010613
Gmin = 1.73365e-011
vernier = 0.00141507
vernier = 0.00188676
Gmin = 1.72707e-011
vernier = 0.00251568
vernier = 0.00125784
vernier = 0.000628921
Gmin = 1.72354e-011
vernier = 0.000838561
vernier = 0.00111808
Gmin = 1.71966e-011
vernier = 0.00149077
vernier = 0.0019877
Gmin = 1.71353e-011
vernier = 0.00265026
vernier = 0.00132513
vernier = 0.000662566
Gmin = 1.70872e-011
vernier = 0.000883421
vernier = 0.00117789
Gmin = 1.7051e-011
vernier = 0.00157053
Gmin = 1.69926e-011
vernier = 0.00209403
vernier = 0.00279204
vernier = 0.00139602
vernier = 0.000698011
Gmin = 1.69326e-011
vernier = 0.000930681
Gmin = 1.68982e-011
vernier = 0.00124091
vernier = 0.00165454
Gmin = 1.6842e-011
vernier = 0.00220606
vernier = 0.00294141
Gmin = 1.67532e-011
vernier = 0.0014707
vernier = 0.000735352
vernier = 0.00098047
Gmin = 1.67378e-011
vernier = 0.00130729
vernier = 0.00174306
Gmin = 1.66855e-011
vernier = 0.00232407
vernier = 0.00116204
vernier = 0.000581019
Gmin = 1.66371e-011
vernier = 0.000774691
Gmin = 1.66081e-011
vernier = 0.00103292
vernier = 0.00137723
Gmin = 1.65596e-011
vernier = 0.0018363
vernier = 0.0024484
vernier = 0.0012242
Gmin = 1.65027e-011
vernier = 0.000612101
vernier = 0.000816135
Gmin = 1.64766e-011
vernier = 0.00108818
vernier = 0.00145091
Gmin = 1.64311e-011
vernier = 0.00193454
Gmin = 1.63597e-011
vernier = 0.00257939
vernier = 0.00128969
vernier = 0.000644846
vernier = 0.000859795
Gmin = 1.63395e-011
vernier = 0.00114639
Gmin = 1.62975e-011
vernier = 0.00152852
vernier = 0.00203803
Gmin = 1.6227e-011
vernier = 0.00271737
vernier = 0.00135869
vernier = 0.000679344
Gmin = 1.61968e-011
vernier = 0.000905791
vernier = 0.00120772
Gmin = 1.61553e-011
vernier = 0.00161029
vernier = 0.00214706
Gmin = 1.60893e-011
vernier = 0.00286274
vernier = 0.00143137
vernier = 0.000715686
Gmin = 1.60462e-011
vernier = 0.000954248
vernier = 0.00127233
Gmin = 1.60073e-011
vernier = 0.00169644
Gmin = 1.59463e-011
vernier = 0.00226192
vernier = 0.00113096
vernier = 0.00056548
vernier = 0.000753973
Gmin = 1.59291e-011
vernier = 0.0010053
Gmin = 1.58931e-011
vernier = 0.0013404
vernier = 0.00178719
Gmin = 1.58328e-011
vernier = 0.00238292
vernier = 0.00119146
vernier = 0.000595731
Gmin = 1.58069e-011
vernier = 0.000794308
vernier = 0.00105908
Gmin = 1.57714e-011
vernier = 0.0014121
vernier = 0.0018828
Gmin = 1.57149e-011
vernier = 0.0025104
vernier = 0.0012552
vernier = 0.000627601
Gmin = 1.5678e-011
vernier = 0.000836801
vernier = 0.00111573
Gmin = 1.56447e-011
vernier = 0.00148765
Gmin = 1.55924e-011
vernier = 0.00198353
vernier = 0.0026447
vernier = 0.00132235
vernier = 0.000661175
Gmin = 1.55435e-011
vernier = 0.000881567
Gmin = 1.55127e-011
vernier = 0.00117542
vernier = 0.00156723
Gmin = 1.54612e-011
vernier = 0.00208964
vernier = 0.00278618
vernier = 0.00139309
Gmin = 1.54007e-011
vernier = 0.000696546
vernier = 0.000928728
Gmin = 1.5373e-011
vernier = 0.0012383
vernier = 0.00165107
Gmin = 1.53247e-011
vernier = 0.00220143
vernier = 0.00110071
vernier = 0.000550357
Gmin = 1.52931e-011
vernier = 0.000733809
vernier = 0.000978411
Gmin = 1.52646e-011
vernier = 0.00130455
Gmin = 1.52199e-011
vernier = 0.0017394
vernier = 0.0023192
vernier = 0.0011596
vernier = 0.000579799
Gmin = 1.51781e-011
vernier = 0.000773065
Gmin = 1.51517e-011
vernier = 0.00103075
vernier = 0.00137434
Gmin = 1.51075e-011
vernier = 0.00183245
vernier = 0.00244326
vernier = 0.00122163
Gmin = 1.50557e-011
vernier = 0.000610816
vernier = 0.000814421
Gmin = 1.5032e-011
vernier = 0.00108589
vernier = 0.00144786
Gmin = 1.49905e-011
vernier = 0.00193048
Gmin = 1.49256e-011
vernier = 0.00257397
vernier = 0.00128699
vernier = 0.000643493
vernier = 0.00085799
Gmin = 1.49072e-011
vernier = 0.00114399
Gmin = 1.48689e-011
vernier = 0.00152532
vernier = 0.00203375
Gmin = 1.48048e-011
vernier = 0.00271167
vernier = 0.00135583
vernier = 0.000677917
Gmin = 1.47772e-011
vernier = 0.00090389
vernier = 0.00120519
Gmin = 1.47394e-011
vernier = 0.00160691
vernier = 0.00214255
vernier = 0.00107128
Gmin = 1.46951e-011
vernier = 0.000535638
vernier = 0.000714184
Gmin = 1.46747e-011
vernier = 0.000952245
vernier = 0.00126966
Gmin = 1.46393e-011
vernier = 0.00169288
Gmin = 1.45836e-011
vernier = 0.00225717
vernier = 0.00112859
vernier = 0.000564293
vernier = 0.00075239
Gmin = 1.45679e-011
vernier = 0.00100319
Gmin = 1.4535e-011
vernier = 0.00133758
vernier = 0.00178344
Gmin = 1.44801e-011
vernier = 0.00237792
vernier = 0.00118896
vernier = 0.000594481
Gmin = 1.44564e-011
vernier = 0.000792641
vernier = 0.00105685
Gmin = 1.4424e-011
vernier = 0.00140914
vernier = 0.00187885
Gmin = 1.43724e-011
vernier = 0.00250513
vernier = 0.00125257
vernier = 0.000626283
Gmin = 1.43387e-011
vernier = 0.000835044
vernier = 0.00111339
Gmin = 1.43083e-011
vernier = 0.00148452
Gmin = 1.42606e-011
vernier = 0.00197936
vernier = 0.000989681
vernier = 0.000494841
vernier = 0.000659787
Gmin = 1.42471e-011
vernier = 0.000879716
Gmin = 1.42189e-011
vernier = 0.00117295
vernier = 0.00156394
Gmin = 1.41718e-011
vernier = 0.00208525
vernier = 0.00104263
vernier = 0.000521313
Gmin = 1.41515e-011
vernier = 0.000695084
vernier = 0.000926778
Gmin = 1.41236e-011
vernier = 0.0012357
vernier = 0.0016476
Gmin = 1.40793e-011
vernier = 0.00219681
vernier = 0.0010984
vernier = 0.000549201
Gmin = 1.40504e-011
vernier = 0.000732268
vernier = 0.000976358
Gmin = 1.40243e-011
vernier = 0.00130181
Gmin = 1.39832e-011
vernier = 0.00173575
vernier = 0.00231433
vernier = 0.00115716
vernier = 0.000578582
Gmin = 1.39449e-011
vernier = 0.000771442
Gmin = 1.39207e-011
vernier = 0.00102859
vernier = 0.00137145
Gmin = 1.38802e-011
vernier = 0.0018286
vernier = 0.00243814
vernier = 0.00121907
Gmin = 1.38327e-011
vernier = 0.000609534
vernier = 0.000812712
Gmin = 1.38109e-011
vernier = 0.00108362
vernier = 0.00144482
Gmin = 1.37729e-011
vernier = 0.00192643
vernier = 0.000963213
vernier = 0.000481607
Gmin = 1.37481e-011
vernier = 0.000642142
vernier = 0.000856189
Gmin = 1.37257e-011
vernier = 0.00114159
Gmin = 1.36905e-011
vernier = 0.00152211
vernier = 0.00202948
vernier = 0.00101474
vernier = 0.000507371
Gmin = 1.36575e-011
vernier = 0.000676494
Gmin = 1.36368e-011
vernier = 0.000901992
vernier = 0.00120266
Gmin = 1.3602e-011
vernier = 0.00160354
vernier = 0.00213805
vernier = 0.00106903
Gmin = 1.35611e-011
vernier = 0.000534514
vernier = 0.000712685
Gmin = 1.35424e-011
vernier = 0.000950246
vernier = 0.00126699
Gmin = 1.35097e-011
vernier = 0.00168933
Gmin = 1.34585e-011
vernier = 0.00225243
vernier = 0.00112622
vernier = 0.000563108
vernier = 0.000750811
Gmin = 1.3444e-011
vernier = 0.00100108
Gmin = 1.34137e-011
vernier = 0.00133477
vernier = 0.0017797
Gmin = 1.33631e-011
vernier = 0.00237293
vernier = 0.00118647
vernier = 0.000593233
Gmin = 1.33413e-011
vernier = 0.000790977
vernier = 0.00105464
Gmin = 1.33115e-011
vernier = 0.00140618
vernier = 0.00187491
vernier = 0.000937453
Gmin = 1.32764e-011
vernier = 0.000468727
vernier = 0.000624969
Gmin = 1.32604e-011
vernier = 0.000833291
vernier = 0.00111105
Gmin = 1.32323e-011
vernier = 0.00148141
Gmin = 1.31883e-011
vernier = 0.00197521
vernier = 0.000987604
vernier = 0.000493802
vernier = 0.000658402
Gmin = 1.31758e-011
vernier = 0.00087787
Gmin = 1.31498e-011
vernier = 0.00117049
vernier = 0.00156066
Gmin = 1.31063e-011
vernier = 0.00208087
vernier = 0.00104044
vernier = 0.000520219
Gmin = 1.30876e-011
vernier = 0.000693625
vernier = 0.000924833
Gmin = 1.30619e-011
vernier = 0.00123311
vernier = 0.00164415
Gmin = 1.3021e-011
vernier = 0.00219219
vernier = 0.0010961
vernier = 0.000548049
Gmin = 1.29943e-011
vernier = 0.000730731
vernier = 0.000974308
Gmin = 1.29702e-011
vernier = 0.00129908
Gmin = 1.29323e-011
vernier = 0.0017321
vernier = 0.00230947
vernier = 0.00115473
vernier = 0.000577367
Gmin = 1.28969e-011
vernier = 0.000769823
Gmin = 1.28746e-011
vernier = 0.00102643
vernier = 0.00136857
Gmin = 1.28372e-011
vernier = 0.00182476
vernier = 0.000912382
vernier = 0.000456191
Gmin = 1.28167e-011
vernier = 0.000608254
vernier = 0.000811006
Gmin = 1.27958e-011
vernier = 0.00108134
vernier = 0.00144179
Gmin = 1.27627e-011
vernier = 0.00192238
vernier = 0.000961191
vernier = 0.000480596
Gmin = 1.27366e-011
vernier = 0.000640794
vernier = 0.000854392
Gmin = 1.27171e-011
vernier = 0.00113919
Gmin = 1.26855e-011
vernier = 0.00151892
vernier = 0.00202522
vernier = 0.00101261
vernier = 0.000506306
Gmin = 1.2653e-011
vernier = 0.000675074
Gmin = 1.26343e-011
vernier = 0.000900099
vernier = 0.00120013
Gmin = 1.26038e-011
vernier = 0.00160018
vernier = 0.00213357
Gmin = 1.25556e-011
vernier = 0.00106678
vernier = 0.000533392
vernier = 0.000711189
Gmin = 1.25472e-011
vernier = 0.000948251
vernier = 0.00126433
Gmin = 1.25187e-011
vernier = 0.00168578
Gmin = 1.24727e-011
vernier = 0.0022477
vernier = 0.00112385
vernier = 0.000561926
vernier = 0.000749235
Gmin = 1.24563e-011
vernier = 0.000998979
Gmin = 1.24291e-011
vernier = 0.00133197
vernier = 0.00177596
vernier = 0.000887981
vernier = 0.000443991
Gmin = 1.24012e-011
vernier = 0.000591987
Gmin = 1.23852e-011
vernier = 0.000789316
vernier = 0.00105242
Gmin = 1.2359e-011
vernier = 0.00140323
vernier = 0.00187097
Gmin = 1.23175e-011
vernier = 0.000935485
vernier = 0.000467743
vernier = 0.000623657
Gmin = 1.23103e-011
vernier = 0.000831542
vernier = 0.00110872
Gmin = 1.22858e-011
vernier = 0.0014783
Gmin = 1.22461e-011
vernier = 0.00197106
vernier = 0.000985531
vernier = 0.000492765
vernier = 0.00065702
Gmin = 1.22321e-011
vernier = 0.000876027
Gmin = 1.22086e-011
vernier = 0.00116804
vernier = 0.00155738
Gmin = 1.21704e-011
vernier = 0.00207651
vernier = 0.00103825
vernier = 0.000519127
Gmin = 1.21499e-011
vernier = 0.000692169
vernier = 0.000922891
Gmin = 1.21273e-011
vernier = 0.00123052
vernier = 0.00164069
Gmin = 1.20916e-011
vernier = 0.00218759
vernier = 0.0010938
vernier = 0.000546898
Gmin = 1.20635e-011
vernier = 0.000729197
vernier = 0.000972263
Gmin = 1.20425e-011
vernier = 0.00129635
Gmin = 1.20084e-011
vernier = 0.00172847
vernier = 0.000864233
vernier = 0.000432117
vernier = 0.000576155
Gmin = 1.19963e-011
vernier = 0.000768207
Gmin = 1.19761e-011
vernier = 0.00102428
vernier = 0.0013657
Gmin = 1.19432e-011
vernier = 0.00182093
vernier = 0.000910467
vernier = 0.000455233
Gmin = 1.19256e-011
vernier = 0.000606978
vernier = 0.000809303
Gmin = 1.19061e-011
vernier = 0.00107907
vernier = 0.00143876
Gmin = 1.18754e-011
vernier = 0.00191835
vernier = 0.000959174
vernier = 0.000479587
Gmin = 1.18512e-011
vernier = 0.000639449
vernier = 0.000852598
Gmin = 1.18331e-011
vernier = 0.0011368
Gmin = 1.18037e-011
vernier = 0.00151573
vernier = 0.00202097
vernier = 0.00101049
vernier = 0.000505243
Gmin = 1.17735e-011
vernier = 0.000673657
Gmin = 1.17562e-011
vernier = 0.000898209
vernier = 0.00119761
Gmin = 1.17279e-011
vernier = 0.00159682
vernier = 0.00212909
Gmin = 1.16831e-011
vernier = 0.00106454
vernier = 0.000532272
vernier = 0.000709696
Gmin = 1.16753e-011
vernier = 0.000946261
vernier = 0.00126168
Gmin = 1.16489e-011
vernier = 0.00168224
vernier = 0.00084112
vernier = 0.00042056
Gmin = 1.16281e-011
vernier = 0.000560747
vernier = 0.000747662
Gmin = 1.16125e-011
vernier = 0.000996882
Gmin = 1.15872e-011
vernier = 0.00132918
vernier = 0.00177223
vernier = 0.000886117
vernier = 0.000443059
Gmin = 1.15612e-011
vernier = 0.000590745
Gmin = 1.15463e-011
vernier = 0.000787659
vernier = 0.00105021
Gmin = 1.15219e-011
vernier = 0.00140028
vernier = 0.00186704
Gmin = 1.14833e-011
vernier = 0.000933521
vernier = 0.000466761
vernier = 0.000622348
Gmin = 1.14766e-011
vernier = 0.000829796
vernier = 0.0011064
Gmin = 1.14538e-011
vernier = 0.00147519
Gmin = 1.14169e-011
vernier = 0.00196692
vernier = 0.000983462
vernier = 0.000491731
vernier = 0.000655641
Gmin = 1.14038e-011
vernier = 0.000874188
Gmin = 1.1382e-011
vernier = 0.00116558
vernier = 0.00155411
Gmin = 1.13465e-011
vernier = 0.00207215
vernier = 0.00103607
vernier = 0.000518037
Gmin = 1.13274e-011
vernier = 0.000690716
vernier = 0.000920954
Gmin = 1.13064e-011
vernier = 0.00122794
vernier = 0.00163725
Gmin = 1.12732e-011
vernier = 0.000818625
vernier = 0.000409313
vernier = 0.00054575
Gmin = 1.12674e-011
vernier = 0.000727667
vernier = 0.000970222
Gmin = 1.12478e-011
vernier = 0.00129363
Gmin = 1.1216e-011
vernier = 0.00172484
vernier = 0.000862419
vernier = 0.000431209
vernier = 0.000574946
Gmin = 1.12047e-011
vernier = 0.000766594
Gmin = 1.11859e-011
vernier = 0.00102213
vernier = 0.00136283
Gmin = 1.11553e-011
vernier = 0.00181711
vernier = 0.000908555
vernier = 0.000454278
Gmin = 1.11388e-011
vernier = 0.000605703
vernier = 0.000807604
Gmin = 1.11207e-011
vernier = 0.00107681
vernier = 0.00143574
Gmin = 1.1092e-011
vernier = 0.00191432
vernier = 0.00095716
vernier = 0.00047858
Gmin = 1.10695e-011
vernier = 0.000638107
vernier = 0.000850809
Gmin = 1.10526e-011
vernier = 0.00113441
Gmin = 1.10252e-011
vernier = 0.00151255
vernier = 0.00201673
vernier = 0.00100836
vernier = 0.000504182
Gmin = 1.09971e-011
vernier = 0.000672243
Gmin = 1.09809e-011
vernier = 0.000896324
vernier = 0.0011951
Gmin = 1.09545e-011
vernier = 0.00159346
vernier = 0.000796732
vernier = 0.000597549
Gmin = 1.09382e-011
vernier = 0.000796732
vernier = 0.00106231
Gmin = 1.09148e-011
vernier = 0.00141641
vernier = 0.00188855
Gmin = 1.08778e-011
vernier = 0.000944274
vernier = 0.000472137
vernier = 0.000629516
Gmin = 1.08714e-011
vernier = 0.000839354
vernier = 0.00111914
Gmin = 1.08496e-011
vernier = 0.00149218
vernier = 0.000746092
vernier = 0.000559569
Gmin = 1.08288e-011
vernier = 0.000746092
Gmin = 1.08107e-011
vernier = 0.000994789
vernier = 0.00132639
Gmin = 1.07802e-011
vernier = 0.00176851
vernier = 0.000884257
vernier = 0.000442128
Gmin = 1.07672e-011
vernier = 0.000589504
vernier = 0.000786006
Gmin = 1.07492e-011
vernier = 0.00104801
vernier = 0.00139734
Gmin = 1.07206e-011
vernier = 0.00186312
vernier = 0.000931561
vernier = 0.000465781
Gmin = 1.07019e-011
vernier = 0.000621041
vernier = 0.000828054
Gmin = 1.0685e-011
vernier = 0.00110407
Gmin = 1.06585e-011
vernier = 0.0014721
vernier = 0.00196279
vernier = 0.000981397
vernier = 0.000490698
Gmin = 1.06337e-011
vernier = 0.000654264
Gmin = 1.06181e-011
vernier = 0.000872352
vernier = 0.00116314
Gmin = 1.05918e-011
vernier = 0.00155085
vernier = 0.000775424
vernier = 0.000581568
Gmin = 1.0578e-011
vernier = 0.000775424
vernier = 0.0010339
Gmin = 1.05548e-011
vernier = 0.00137853
vernier = 0.00183804
vernier = 0.00091902
Gmin = 1.05275e-011
vernier = 0.00045951
vernier = 0.00061268
Gmin = 1.05151e-011
vernier = 0.000816906
vernier = 0.00108921
Gmin = 1.04932e-011
vernier = 0.00145228
vernier = 0.000726138
vernier = 0.000544604
Gmin = 1.04704e-011
vernier = 0.000726138
Gmin = 1.04538e-011
vernier = 0.000968184
vernier = 0.00129091
Gmin = 1.04266e-011
vernier = 0.00172122
vernier = 0.000860608
vernier = 0.000430304
Gmin = 1.04121e-011
vernier = 0.000573738
vernier = 0.000764984
Gmin = 1.0396e-011
vernier = 0.00101998
vernier = 0.00135997
Gmin = 1.03707e-011
vernier = 0.00181329
vernier = 0.000906647
vernier = 0.000453324
Gmin = 1.03507e-011
vernier = 0.000604431
vernier = 0.000805908
Gmin = 1.03357e-011
vernier = 0.00107454
Gmin = 1.03115e-011
vernier = 0.00143273
vernier = 0.0019103
vernier = 0.00095515
vernier = 0.000477575
Gmin = 1.02866e-011
vernier = 0.000636766
Gmin = 1.02722e-011
vernier = 0.000849022
vernier = 0.00113203
Gmin = 1.02488e-011
vernier = 0.00150937
vernier = 0.000754686
vernier = 0.000566014
Gmin = 1.02343e-011
vernier = 0.000754685
vernier = 0.00100625
Gmin = 1.02136e-011
vernier = 0.00134166
vernier = 0.00178888
Gmin = 1.01808e-011
vernier = 0.000894441
vernier = 0.000447221
vernier = 0.000596294
Gmin = 1.01751e-011
vernier = 0.000795059
vernier = 0.00106008
Gmin = 1.01558e-011
vernier = 0.00141344
Gmin = 1.01244e-011
vernier = 0.000706718
vernier = 0.000530039
vernier = 0.000706718
Gmin = 1.01159e-011
vernier = 0.000942291
vernier = 0.00125639
Gmin = 1.00931e-011
vernier = 0.00167518
vernier = 0.000837591
vernier = 0.000418796
Gmin = 1.00752e-011
vernier = 0.000558394
vernier = 0.000744525
Gmin = 1.00617e-011
vernier = 0.0009927
Gmin = 1.00399e-011
vernier = 0.0013236
vernier = 0.0017648
vernier = 0.0008824
vernier = 0.0004412
Gmin = 1.00175e-011
vernier = 0.000588266
Gmin = 1.00046e-011
vernier = 0.000784355
vernier = 0.00104581
Gmin = 9.98355e-012
vernier = 0.00139441
vernier = 0.00185921
Gmin = 9.95026e-012
vernier = 0.000929605
vernier = 0.000464802
vernier = 0.000619736
Gmin = 9.94448e-012
vernier = 0.000826315
vernier = 0.00110175
Gmin = 9.92482e-012
vernier = 0.001469
vernier = 0.000734502
vernier = 0.000550876
Gmin = 9.90843e-012
vernier = 0.000734502
vernier = 0.000979335
Gmin = 9.89101e-012
vernier = 0.00130578
Gmin = 9.8628e-012
vernier = 0.00174104
vernier = 0.00087052
vernier = 0.00043526
vernier = 0.000580346
Gmin = 9.85279e-012
vernier = 0.000773795
Gmin = 9.83613e-012
vernier = 0.00103173
vernier = 0.00137564
Gmin = 9.8089e-012
vernier = 0.000687818
vernier = 0.000515863
vernier = 0.000687817
Gmin = 9.80089e-012
vernier = 0.00091709
vernier = 0.00122279
Gmin = 9.77938e-012
vernier = 0.00163038
vernier = 0.00081519
vernier = 0.000407595
Gmin = 9.76246e-012
vernier = 0.00054346
vernier = 0.000724613
Gmin = 9.74976e-012
vernier = 0.000966151
Gmin = 9.72917e-012
vernier = 0.0012882
vernier = 0.0017176
vernier = 0.0008588
vernier = 0.0004294
Gmin = 9.70805e-012
vernier = 0.000572533
Gmin = 9.6959e-012
vernier = 0.000763378
vernier = 0.00101784
Gmin = 9.67603e-012
vernier = 0.00135712
vernier = 0.00180949
Gmin = 9.64463e-012
vernier = 0.000904743
vernier = 0.000452372
vernier = 0.000603162
Gmin = 9.63917e-012
vernier = 0.000804216
vernier = 0.00107229
Gmin = 9.62062e-012
vernier = 0.00142972
vernier = 0.000714858
vernier = 0.000536144
Gmin = 9.60516e-012
vernier = 0.000714858
vernier = 0.000953144
Gmin = 9.58873e-012
vernier = 0.00127086
Gmin = 9.56211e-012
vernier = 0.00169448
vernier = 0.000847238
vernier = 0.000423619
vernier = 0.000564825
Gmin = 9.55266e-012
vernier = 0.0007531
Gmin = 9.53694e-012
vernier = 0.00100413
vernier = 0.00133884
vernier = 0.000669422
Gmin = 9.51761e-012
vernier = 0.000502067
vernier = 0.000669422
Gmin = 9.50528e-012
vernier = 0.000892563
vernier = 0.00119008
Gmin = 9.48374e-012
vernier = 0.00158678
vernier = 0.000793389
vernier = 0.000595041
Gmin = 9.46824e-012
vernier = 0.000793388
vernier = 0.00105785
Gmin = 9.44916e-012
vernier = 0.00141047
vernier = 0.000705234
vernier = 0.000528925
Gmin = 9.43543e-012
vernier = 0.000705234
vernier = 0.000940311
Gmin = 9.41854e-012
vernier = 0.00125375
Gmin = 9.39201e-012
vernier = 0.00167166
vernier = 0.000835832
vernier = 0.000417916
vernier = 0.000557221
Gmin = 9.38449e-012
vernier = 0.000742961
Gmin = 9.36881e-012
vernier = 0.000990615
vernier = 0.00132082
Gmin = 9.34256e-012
vernier = 0.00176109
vernier = 0.000880546
vernier = 0.000440273
Gmin = 9.33126e-012
vernier = 0.00058703
vernier = 0.000782707
Gmin = 9.31575e-012
vernier = 0.00104361
vernier = 0.00139148
Gmin = 9.29108e-012
vernier = 0.000695739
vernier = 0.000521804
vernier = 0.000695739
Gmin = 9.2834e-012
vernier = 0.000927652
vernier = 0.00123687
Gmin = 9.2628e-012
vernier = 0.00164916
vernier = 0.000824579
vernier = 0.00041229
Gmin = 9.24658e-012
vernier = 0.000549719
vernier = 0.000732959
Gmin = 9.23441e-012
vernier = 0.000977278
Gmin = 9.21469e-012
vernier = 0.00130304
vernier = 0.000651519
vernier = 0.000488639
Gmin = 9.20382e-012
vernier = 0.000651518
vernier = 0.000868691
Gmin = 9.18685e-012
vernier = 0.00115825
vernier = 0.00154434
vernier = 0.000772169
Gmin = 9.16692e-012
vernier = 0.000579127
vernier = 0.000772169
Gmin = 9.15322e-012
vernier = 0.00102956
vernier = 0.00137274
vernier = 0.000686372
Gmin = 9.13557e-012
vernier = 0.000514779
vernier = 0.000686372
Gmin = 9.12343e-012
vernier = 0.000915163
vernier = 0.00122022
Gmin = 9.10223e-012
vernier = 0.00162695
vernier = 0.000813477
vernier = 0.000406739
Gmin = 9.08836e-012
vernier = 0.000542318
vernier = 0.000723091
Gmin = 9.07584e-012
vernier = 0.000964121
Gmin = 9.05618e-012
vernier = 0.00128549
vernier = 0.00171399
vernier = 0.000856996
vernier = 0.000428498
Gmin = 9.03777e-012
vernier = 0.00057133
Gmin = 9.02616e-012
vernier = 0.000761774
vernier = 0.0010157
Gmin = 9.0067e-012
vernier = 0.00135426
vernier = 0.000677132
vernier = 0.000507849
Gmin = 8.99642e-012
vernier = 0.000677132
vernier = 0.000902842
Gmin = 8.97917e-012
vernier = 0.00120379
vernier = 0.00160505
vernier = 0.000802526
Gmin = 8.95893e-012
vernier = 0.000401263
vernier = 0.000535017
Gmin = 8.94965e-012
vernier = 0.000713356
vernier = 0.000951141
Gmin = 8.93344e-012
vernier = 0.00126819
Gmin = 8.90799e-012
vernier = 0.000634094
vernier = 0.00047557
vernier = 0.000634094
Gmin = 8.90129e-012
vernier = 0.000845458
vernier = 0.00112728
Gmin = 8.88328e-012
vernier = 0.00150304
vernier = 0.000751518
vernier = 0.000563638
Gmin = 8.86827e-012
vernier = 0.000751518
vernier = 0.00100202
Gmin = 8.85232e-012
vernier = 0.00133603
vernier = 0.000668015
vernier = 0.000501012
Gmin = 8.83902e-012
vernier = 0.000668015
vernier = 0.000890687
Gmin = 8.82489e-012
vernier = 0.00118758
Gmin = 8.802e-012
vernier = 0.00158344
vernier = 0.000791721
vernier = 0.000593791
vernier = 0.000791721
Gmin = 8.79112e-012
vernier = 0.00105563
Gmin = 8.77084e-012
vernier = 0.0014075
vernier = 0.000703752
vernier = 0.000527814
vernier = 0.000703751
Gmin = 8.7612e-012
vernier = 0.000938335
Gmin = 8.74324e-012
vernier = 0.00125111
vernier = 0.000625556
vernier = 0.000469167
Gmin = 8.73333e-012
vernier = 0.000625556
vernier = 0.000834075
Gmin = 8.71787e-012
vernier = 0.0011121
vernier = 0.0014828
vernier = 0.0007414
Gmin = 8.69971e-012
vernier = 0.00055605
vernier = 0.000741399
Gmin = 8.68723e-012
vernier = 0.000988532
vernier = 0.00131804
vernier = 0.000659021
Gmin = 8.67114e-012
vernier = 0.000494266
vernier = 0.000659021
Gmin = 8.66008e-012
vernier = 0.000878695
vernier = 0.00117159
Gmin = 8.64076e-012
vernier = 0.00156212
vernier = 0.000781062
vernier = 0.000585796
Gmin = 8.62685e-012
vernier = 0.000781061
vernier = 0.00104141
Gmin = 8.60975e-012
vernier = 0.00138855
vernier = 0.000694276
vernier = 0.000520707
Gmin = 8.59743e-012
vernier = 0.000694276
vernier = 0.000925701
Gmin = 8.58227e-012
vernier = 0.00123427
Gmin = 8.55847e-012
vernier = 0.00164569
vernier = 0.000822845
vernier = 0.000411423
vernier = 0.000548563
Gmin = 8.55173e-012
vernier = 0.000731418
Gmin = 8.53767e-012
vernier = 0.000975223
vernier = 0.0013003
vernier = 0.000650149
vernier = 0.000487612
Gmin = 8.52415e-012
vernier = 0.000650149
Gmin = 8.51169e-012
vernier = 0.000866864
vernier = 0.00115582
Gmin = 8.49081e-012
vernier = 0.00154109
vernier = 0.000770546
vernier = 0.000577909
Gmin = 8.47978e-012
vernier = 0.000770546
vernier = 0.00102739
Gmin = 8.46129e-012
vernier = 0.00136986
vernier = 0.000684929
vernier = 0.000513697
Gmin = 8.45152e-012
vernier = 0.000684929
vernier = 0.000913238
Gmin = 8.43513e-012
vernier = 0.00121765
vernier = 0.000608825
vernier = 0.000456619
Gmin = 8.42487e-012
vernier = 0.000608825
vernier = 0.000811767
Gmin = 8.4111e-012
vernier = 0.00108236
vernier = 0.00144314
Gmin = 8.38932e-012
vernier = 0.00072157
vernier = 0.000541178
vernier = 0.00072157
Gmin = 8.38213e-012
vernier = 0.000962093
vernier = 0.00128279
Gmin = 8.36283e-012
vernier = 0.000641395
vernier = 0.000481046
vernier = 0.000641395
Gmin = 8.35647e-012
vernier = 0.000855193
vernier = 0.00114026
Gmin = 8.33937e-012
vernier = 0.00152034
vernier = 0.000760171
vernier = 0.000570129
Gmin = 8.32512e-012
vernier = 0.000760171
vernier = 0.00101356
Gmin = 8.30997e-012
vernier = 0.00135141
vernier = 0.000675707
vernier = 0.000506781
Gmin = 8.29735e-012
vernier = 0.000675707
vernier = 0.000900943
Gmin = 8.28393e-012
vernier = 0.00120126
Gmin = 8.26219e-012
vernier = 0.000600628
vernier = 0.000450471
vernier = 0.000600628
Gmin = 8.25506e-012
vernier = 0.000800837
Gmin = 8.2402e-012
vernier = 0.00106778
vernier = 0.00142371
vernier = 0.000711855
vernier = 0.000533891
Gmin = 8.22592e-012
vernier = 0.000711855
Gmin = 8.21275e-012
vernier = 0.00094914
vernier = 0.00126552
vernier = 0.00063276
vernier = 0.00047457
Gmin = 8.19847e-012
vernier = 0.000632759
Gmin = 8.18714e-012
vernier = 0.000843679
vernier = 0.00112491
Gmin = 8.1686e-012
vernier = 0.00149987
vernier = 0.000749937
vernier = 0.000562452
Gmin = 8.15712e-012
vernier = 0.000749936
vernier = 0.000999915
Gmin = 8.1407e-012
vernier = 0.00133322
vernier = 0.00066661
vernier = 0.000499957
Gmin = 8.13053e-012
vernier = 0.00066661
vernier = 0.000888813
Gmin = 8.11598e-012
vernier = 0.00118508
vernier = 0.000592542
vernier = 0.000444406
Gmin = 8.10697e-012
vernier = 0.000592541
vernier = 0.000790055
Gmin = 8.09407e-012
vernier = 0.00105341
vernier = 0.00140454
Gmin = 8.07367e-012
vernier = 0.000702271
vernier = 0.000526703
vernier = 0.000702271
Gmin = 8.06694e-012
vernier = 0.000936361
vernier = 0.00124848
Gmin = 8.04886e-012
vernier = 0.00062424
vernier = 0.00046818
vernier = 0.00062424
Gmin = 8.0429e-012
vernier = 0.00083232
vernier = 0.00110976
Gmin = 8.02688e-012
vernier = 0.00147968
vernier = 0.00073984
vernier = 0.00055488
Gmin = 8.01353e-012
vernier = 0.000739839
vernier = 0.000986452
Gmin = 7.99934e-012
vernier = 0.00131527
vernier = 0.000657635
vernier = 0.000493226
Gmin = 7.98751e-012
vernier = 0.000657634
vernier = 0.000876846
Gmin = 7.97494e-012
vernier = 0.00116913
vernier = 0.000584564
vernier = 0.000438423
Gmin = 7.96446e-012
vernier = 0.000584564
vernier = 0.000779418
Gmin = 7.95331e-012
vernier = 0.00103922
Gmin = 7.93525e-012
vernier = 0.00138563
vernier = 0.000692816
vernier = 0.000519612
vernier = 0.000692815
Gmin = 7.92667e-012
vernier = 0.000923754
Gmin = 7.91067e-012
vernier = 0.00123167
vernier = 0.000615836
vernier = 0.000461877
vernier = 0.000615835
Gmin = 7.90306e-012
vernier = 0.000821114
Gmin = 7.88888e-012
vernier = 0.00109482
vernier = 0.00145976
vernier = 0.000729878
vernier = 0.000547409
Gmin = 7.87432e-012
vernier = 0.000729878
Gmin = 7.86176e-012
vernier = 0.000973171
vernier = 0.00129756
vernier = 0.00064878
vernier = 0.000486585
Gmin = 7.84886e-012
vernier = 0.00064878
Gmin = 7.83773e-012
vernier = 0.00086504
vernier = 0.00115339
vernier = 0.000576693
vernier = 0.00043252
Gmin = 7.8263e-012
vernier = 0.000576693
Gmin = 7.81643e-012
vernier = 0.000768924
vernier = 0.00102523
Gmin = 7.8003e-012
vernier = 0.00136698
vernier = 0.000683488
vernier = 0.000512616
Gmin = 7.79031e-012
vernier = 0.000683487
vernier = 0.000911316
Gmin = 7.77601e-012
vernier = 0.00121509
vernier = 0.000607544
vernier = 0.000455658
Gmin = 7.76569e-012
vernier = 0.000607544
vernier = 0.000810058
Gmin = 7.75371e-012
vernier = 0.00108008
vernier = 0.000540039
vernier = 0.000405029
Gmin = 7.74377e-012
vernier = 0.000540039
vernier = 0.000720051
Gmin = 7.73376e-012
vernier = 0.000960068
Gmin = 7.71753e-012
vernier = 0.00128009
vernier = 0.000640045
vernier = 0.000480034
vernier = 0.000640045
Gmin = 7.70982e-012
vernier = 0.000853393
Gmin = 7.69544e-012
vernier = 0.00113786
vernier = 0.000568929
vernier = 0.000426697
vernier = 0.000568929
Gmin = 7.68861e-012
vernier = 0.000758571
Gmin = 7.67586e-012
vernier = 0.00101143
vernier = 0.00134857
vernier = 0.000674285
vernier = 0.000505714
Gmin = 7.66277e-012
vernier = 0.000674285
Gmin = 7.65148e-012
vernier = 0.000899046
vernier = 0.00119873
vernier = 0.000599364
vernier = 0.000449523
Gmin = 7.63988e-012
vernier = 0.000599364
Gmin = 7.62987e-012
vernier = 0.000799152
vernier = 0.00106554
vernier = 0.000532768
Gmin = 0
Gmin = 0
Gmin stepping failed

Starting source stepping with srcstepmethod=0
Source Step = 3.0303%
Source Step = 33.3333%
vernier = 0.25
Source Step = 37.8788%
Source Step = 42.4242%
Source Step = 44.3182%
Source Step = 46.2121%
Source Step = 48.1061%
Source Step = 50%
vernier = 0.09375
Source Step = 51.4678%
Source Step = 52.178%
Source Step = 52.8883%
Source Step = 53.5985%
Source Step = 54.3087%
vernier = 0.0351563
Source Step = 55.0545%
Source Step = 55.8535%
Source Step = 56.1198%
Source Step = 56.3861%
Source Step = 56.6525%
Source Step = 56.9188%
vernier = 0.0131836
Source Step = 57.1984%
Source Step = 57.598%
Source Step = 57.9975%
Source Step = 58.397%
Source Step = 58.7965%
Source Step = 59.196%
vernier = 0.0197754
Source Step = 59.7952%
Source Step = 60.0649%
Source Step = 60.2147%
Source Step = 60.3645%
Source Step = 60.5143%
Source Step = 60.6641%
vernier = 0.00741577
Source Step = 60.8514%
Source Step = 61.0761%
Source Step = 61.3008%
Source Step = 61.5256%
Source Step = 61.7503%
vernier = 0.0111237
Source Step = 62.0199%
Source Step = 62.357%
Source Step = 62.6941%
Source Step = 63.0312%
Source Step = 63.3683%
vernier = 0.0166855
Source Step = 63.6295%
Source Step = 63.7559%
Source Step = 63.8823%
Source Step = 64.0087%
Source Step = 64.1351%
vernier = 0.00625706
Source Step = 64.2679%
Source Step = 64.4575%
Source Step = 64.6471%
Source Step = 64.8367%
Source Step = 65.0263%
Source Step = 65.2159%
vernier = 0.00938559
Source Step = 65.3865%
Source Step = 65.4576%
Source Step = 65.5287%
Source Step = 65.5998%
Source Step = 65.671%
vernier = 0.00351959
Source Step = 65.7527%
Source Step = 65.8594%
Source Step = 65.966%
Source Step = 66.0727%
Source Step = 66.1793%
vernier = 0.00527939
Source Step = 66.2967%
Source Step = 66.4566%
Source Step = 66.6166%
Source Step = 66.7766%
Source Step = 66.9366%
vernier = 0.00791909
Source Step = 67.1046%
vernier = 0.00197977
Source Step = 67.1406%
Source Step = 67.2006%
Source Step = 67.2605%
Source Step = 67.3205%
Source Step = 67.3805%
vernier = 0.00296966
Source Step = 67.4675%
Source Step = 67.5575%
Source Step = 67.6475%
Source Step = 67.7375%
Source Step = 67.8275%
vernier = 0.00445449
Source Step = 67.9535%
Source Step = 68.0885%
Source Step = 68.2234%
Source Step = 68.3584%
Source Step = 68.4934%
vernier = 0.00668173
Source Step = 68.5643%
Source Step = 68.6149%
Source Step = 68.6655%
Source Step = 68.7161%
Source Step = 68.7667%
vernier = 0.00250565
Source Step = 68.83%
Source Step = 68.906%
Source Step = 68.9819%
Source Step = 69.0578%
Source Step = 69.1337%
vernier = 0.00375847
Source Step = 69.2249%
Source Step = 69.3387%
Source Step = 69.4526%
Source Step = 69.5665%
Source Step = 69.6804%
vernier = 0.00563771
Source Step = 69.7687%
Source Step = 69.8114%
Source Step = 69.8541%
Source Step = 69.8968%
Source Step = 69.9395%
vernier = 0.00211414
Source Step = 69.9844%
Source Step = 70.0484%
Source Step = 70.1125%
Source Step = 70.1766%
Source Step = 70.2406%
Source Step = 70.3047%
vernier = 0.00317121
Source Step = 70.4008%
Source Step = 70.4969%
Source Step = 70.593%
Source Step = 70.6891%
Source Step = 70.7852%
vernier = 0.00475682
Source Step = 70.8236%
Source Step = 70.8597%
Source Step = 70.8957%
Source Step = 70.9317%
Source Step = 70.9678%
vernier = 0.00178381
Source Step = 71.0164%
Source Step = 71.0705%
Source Step = 71.1245%
Source Step = 71.1786%
Source Step = 71.2326%
vernier = 0.00267571
Source Step = 71.3029%
Source Step = 71.384%
Source Step = 71.4651%
Source Step = 71.5462%
Source Step = 71.6272%
vernier = 0.00401357
Source Step = 71.6799%
Source Step = 71.7104%
Source Step = 71.7408%
Source Step = 71.7712%
Source Step = 71.8016%
vernier = 0.00150509
Source Step = 71.8365%
Source Step = 71.8821%
Source Step = 71.9278%
Source Step = 71.9734%
Source Step = 72.019%
vernier = 0.00225763
Source Step = 72.0691%
Source Step = 72.1376%
Source Step = 72.206%
Source Step = 72.2744%
Source Step = 72.3428%
vernier = 0.00338645
Source Step = 72.4146%
Source Step = 72.5172%
Source Step = 72.6199%
Source Step = 72.7225%
vernier = 0.000846611
Source Step = 72.7379%
Source Step = 72.7635%
Source Step = 72.7892%
Source Step = 72.8148%
Source Step = 72.8405%
vernier = 0.00126992
Source Step = 72.8777%
Source Step = 72.9162%
Source Step = 72.9547%
Source Step = 72.9931%
Source Step = 73.0316%
vernier = 0.00190488
Source Step = 73.0855%
Source Step = 73.1432%
Source Step = 73.2009%
Source Step = 73.2587%
Source Step = 73.3164%
vernier = 0.00285731
Source Step = 73.3943%
Source Step = 73.4809%
Source Step = 73.5675%
Source Step = 73.6541%
Source Step = 73.7407%
vernier = 0.00428597
Source Step = 73.7915%
Source Step = 73.824%
Source Step = 73.8565%
Source Step = 73.8889%
Source Step = 73.9214%
vernier = 0.00160724
Source Step = 73.9604%
Source Step = 74.0091%
Source Step = 74.0578%
Source Step = 74.1065%
Source Step = 74.1552%
vernier = 0.00241086
Source Step = 74.2112%
Source Step = 74.2843%
Source Step = 74.3573%
Source Step = 74.4304%
Source Step = 74.5034%
vernier = 0.00361629
Source Step = 74.5646%
Source Step = 74.592%
Source Step = 74.6194%
Source Step = 74.6468%
Source Step = 74.6742%
Source Step = 74.7016%
vernier = 0.00135611
Source Step = 74.7427%
Source Step = 74.7838%
Source Step = 74.8249%
Source Step = 74.866%
Source Step = 74.9071%
vernier = 0.00203416
Source Step = 74.9666%
Source Step = 75.0283%
Source Step = 75.0899%
Source Step = 75.1516%
Source Step = 75.2132%
vernier = 0.00305124
Source Step = 75.2995%
Starting source stepping with srcstepmethod=1
Source Step = 3.0303%
Source Step = 33.3333%
Source Step = 63.6364%
Source Step = 93.9394%
Source Step = 100%
Source Step = 100%
Source Step = 99.0118%
vernier = 0.000976563
Source Step = 99.0296%
Source Step = 99.0592%
Source Step = 99.0888%
Source Step = 99.1184%
Source Step = 99.148%
Source Step = 99.1776%
Source Step = 99.2071%
Source Step = 99.2367%
Source Step = 99.2663%
Source Step = 99.2959%
Source Step = 99.3255%
Source Step = 99.3551%
Source Step = 99.3847%
Source Step = 99.4143%
Source Step = 99.4439%
Source Step = 99.4735%
Source Step = 99.5031%
Source Step = 99.5327%
Source Step = 99.5623%
Source Step = 99.5919%
Source Step = 99.6214%
Source Step = 99.651%
Source Step = 99.6806%
Source Step = 99.7102%
Source Step = 99.7398%
Source Step = 99.7694%
Source Step = 99.799%
Source Step = 99.8286%
Source Step = 99.8582%
Source Step = 99.8878%
Source Step = 99.9174%
Source Step = 99.947%
Source Step = 99.9766%
Source Step = 100%
Source Step = 100%
Source Step = 100%
Source Step = 100%
Source Step = 100%
Source Step = 100%
Source Step = 100%
Source Step = 100%
Source Step = 100%
Source Step = 100%
Source Step = 100%
Source Step = 100%
Source Step = 100%
Source Step = 100%
Source Step = 100%
Source Step = 100%
Source Step = 100%
Source Step = 100%
Source Step = 100%
Source Step = 100%
Source Step = 100%
Source Step = 100%
Source Step = 100%
Source Step = 100%
Source Step = 100%
Source Step = 100%
Source Step = 100%
Source Step = 100%
Source Step = 100%
Source Step = 100%
Source Step = 100%
Source Step = 100%
Source Step = 100%
Source Step = 100%
Source Step = 100%
Source Step = 100%
Source Step = 100%
Source Step = 100%
Source Step = 100%
Source Step = 100%
Source Step = 100%
Source Step = 100%
Source Step = 100%
Source Step = 100%
Source Step = 100%
Source Step = 100%
Source Step = 100%
Source Step = 100%
Source Step = 100%
Source Step = 100%
Source Step = 100%
Source Step = 100%
Source Step = 100%
Source Step = 100%
Source Step = 100%
Source Step = 100%
Source Step = 100%
Source Step = 100%
Source Step = 100%
Source Step = 100%
Source Step = 100%
Source Step = 100%
Source Step = 100%
Source Step = 100%
Source Step = 100%
Source Step = 100%
Source Step = 100%
Source Step = 100%
Source Step = 100%
Source Step = 100%
Source Step = 100%
Source Step = 100%
Source Step = 100%
Source Step = 100%
Source Step = 100%
Source Step = 100%
Source Step = 100%
Source Step = 100%
Source Step = 100%
Source Step = 100%
Source Step = 100%
Source Step = 100%
Source Step = 100%
Source Step = 100%
Source Step = 100%
Source Step = 100%
Source Step = 100%
Source Step = 100%
Source Step = 100%
Source Step = 100%
Source Step = 100%
Source Step = 100%
Source Step = 100%
Source Step = 100%
Source Step = 100%
Source Step = 100%
Source Step = 100%
Source Step = 100%
Source Step = 100%
Source Step = 100%
Source Step = 100%
Source Step = 100%
Source Step = 100%
Source Step = 100%
Source Step = 100%
Source Step = 100%
Source Step = 100%
Source Step = 100%
Source Step = 100%
Source Step = 100%
Source Step = 100%
Source Step = 100%
Source Step = 100%
Source Step = 100%
Source Step = 100%
Source Step = 100%
Source Step = 100%
Source Step = 100%
Source Step = 100%
Source Step = 100%
Source Step = 100%
Source Step = 100%
Source Step = 100%
Source Step = 100%
Source Step = 100%
Source Step = 100%
Source Step = 100%
Source Step = 100%
Source Step = 100%
Source Step = 100%
Source Step = 100%
Source Step = 100%
Source Step = 100%
Source Step = 100%
Source Step = 100%
Source Step = 100%
Source Step = 100%
Source Step = 100%
Source Step = 100%
Source Step = 100%
Source Step = 100%
Source Step = 100%
Source Step = 100%
Source Step = 100%
Source Step = 100%
Source Step = 100%
Source Step = 100%
Source Step = 100%
Source Step = 100%
Source Step = 100%
Source Step = 100%
Source Step = 100%
Source Step = 100%
Source Step = 100%
Source Step = 100%
Source Step = 100%
Source Step = 100%
Source Step = 100%
Source Step = 100%
Source Step = 100%
Source Step = 100%
Source Step = 100%
Source Step = 100%
Source Step = 100%
Source Step = 100%
Source Step = 100%
Source Step = 100%
Source Step = 100%
Source Step = 100%
Source Step = 100%
Source Step = 100%
Source Step = 100%
Source Step = 100%
Source Step = 100%
Source Step = 100%
Source Step = 100%
Source Step = 100%
Source Step = 100%
Source Step = 100%
Source Step = 100%
Source Step = 100%
Source Step = 100%
Source Step = 100%
Source Step = 100%
Source Step = 100%
Source Step = 100%
Source Step = 100%
Source Step = 100%
Source Step = 100%
Source Step = 100%
Source Step = 100%
Source Step = 100%
Source Step = 100%
Source Step = 100%
Source Step = 100%
Source Step = 100%
Source Step = 100%
Source Step = 100%
Source Step = 100%
Source Step = 100%
Source Step = 100%
Source Step = 100%
Source Step = 100%
Source Step = 100%
Source Step = 100%
Source Step = 100%
Source Step = 100%
Source Step = 100%
Source Step = 100%
Source Step = 100%
Source Step = 100%
Source Step = 100%
Source Step = 100%
Source Step = 100%
Source Step = 100%
Source Step = 100%
Source Step = 100%
Source Step = 100%
Source Step = 100%
Source Step = 100%
Source Step = 100%
Source Step = 100%
Source Step = 100%
Source Step = 100%
Source Step = 100%
Source Step = 100%
Source Step = 100%
Source Step = 100%
Source Step = 100%
Source Step = 100%
Source Step = 100%
Source Step = 100%
Source Step = 100%
Source Step = 100%
Source Step = 100%
Source Step = 100%
Source Step = 100%
Source Step = 100%
Source Step = 100%
Source Step = 100%
Source Step = 100%
Source Step = 100%
Source Step = 100%
Source Step = 100%
Source Step = 100%
Source Step = 100%
Source Step = 100%
Source Step = 100%
Source Step = 100%
Source Step = 100%
Source Step = 100%
Source Step = 100%
Source Step = 100%
Source Step = 100%
Source Step = 100%
Source Step = 100%
Source Step = 100%
Source Step = 100%
Source Step = 100%
Source Step = 100%
Source Step = 100%
Source Step = 100%
Source Step = 100%
Source Step = 100%
Source Step = 100%
Source Step = 100%
Source Step = 100%
Source Step = 100%
Source Step = 100%
Source Step = 100%
Source Step = 100%
Source Step = 100%
Source Step = 100%
Source Step = 100%
Source Step = 100%
Source Step = 100%
Source Step = 100%
Source Step = 100%
Source Step = 100%
Source Step = 100%
Source Step = 100%
Source Step = 100%
Source Step = 100%
Source Step = 100%
Source Step = 100%
Source Step = 100%
Source Step = 100%
Source Step = 100%
Source Step = 100%
Source Step = 100%
Source Step = 100%
Source Step = 100%
Source Step = 100%
Source Step = 100%
Source Step = 100%
Source Step = 100%
Source Step = 100%
Source Step = 100%
Source Step = 100%
Source Step = 100%
Source Step = 100%
Source Step = 100%
Source Step = 100%
Source Step = 100%
Source Step = 100%
Source Step = 100%
Source Step = 100%
Source Step = 100%
Source Step = 100%
Source Step = 100%
Source Step = 100%
Source Step = 100%
Source Step = 100%
Source Step = 100%
Source Step = 100%
Source Step = 100%
Source Step = 100%
Source Step = 100%
Source Step = 100%
Source Step = 100%
Source Step = 100%
Source Step = 100%
Source Step = 100%
Source Step = 100%
Source Step = 100%
Source Step = 100%
Source Step = 100%
Source Step = 100%
Source Step = 100%
Source Step = 100%
Source Step = 100%
Source Step = 100%
Source Step = 100%
Source Step = 100%
Source Step = 100%
Source Step = 100%
Source Step = 100%
Source Step = 100%
Source Step = 100%
Source Step = 100%
Source Step = 100%
Source Step = 100%
Source Step = 100%
Source Step = 100%
Source Step = 100%
Source Step = 100%
Source Step = 100%
Source Step = 100%
Source Step = 100%
Source Step = 100%
Source Step = 100%
Source Step = 100%
Source Step = 100%
Source Step = 100%
Source Step = 100%
Source Step = 100%
Source Step = 100%
Source Step = 100%
Source Step = 100%
Source Step = 100%
Source Step = 100%
Source Step = 100%
Source Step = 100%
Source Step = 100%
Source Step = 100%
Source Step = 100%
Source Step = 100%
Source Step = 100%
Source Step = 100%
Source Step = 100%
Source Step = 100%
Source Step = 100%
Source Step = 100%
Source Step = 100%
Source Step = 100%
Source Step = 100%
Source Step = 100%
Source Step = 100%
Source Step = 100%
Source Step = 100%
Source Step = 100%
Source Step = 100%
Source Step = 100%
Source Step = 100%
Source Step = 100%
Source Step = 100%
Source Step = 100%
Source Step = 100%
Source Step = 100%
Source Step = 100%
Source Step = 100%
Source Step = 100%
Source Step = 100%
Source Step = 100%
Source Step = 100%
Source Step = 100%
Source Step = 100%
Source Step = 100%
Source Step = 100%
Source Step = 100%
Source Step = 100%
Source Step = 100%
Source Step = 100%
Source Step = 100%
Source Step = 100%
Source Step = 100%
Source Step = 100%
Source Step = 100%
Source Step = 100%
Source Step = 100%
Source Step = 100%
Source Step = 100%
Source Step = 100%
Source Step = 100%
Source Step = 100%
Source Step = 100%
Source Step = 100%
Source Step = 100%
Source Step = 100%
Source Step = 100%
Source Step = 100%
Source Step = 100%
Source Step = 100%
Source Step = 100%
Source Step = 100%
Source Step = 100%
Source Step = 100%
Source Step = 100%
Source Step = 100%
Source Step = 100%
Source Step = 100%
Source Step = 100%
Source Step = 100%
Source Step = 100%
Source Step = 100%
Source Step = 100%
Source Step = 100%
Source Step = 100%
Source Step = 100%
Source Step = 100%
Source Step = 100%
Source Step = 100%
Source Step = 100%
Source Step = 100%
Source Step = 100%
Source Step = 100%
Source Step = 100%
Source Step = 100%
Source Step = 100%
Source Step = 100%
Source Step = 100%
Source Step = 100%
Source Step = 100%
Source Step = 100%
Source Step = 100%
Source Step = 100%
Source Step = 100%
Source Step = 100%
Source Step = 100%
Source Step = 100%
Source Step = 100%
Source Step = 100%
Source Step = 100%
Source Step = 100%
Source Step = 100%
Source Step = 100%
Source Step = 100%
Source Step = 100%
Source Step = 100%
Source Step = 100%
Source Step = 100%
Source Step = 100%
Source Step = 100%
Source Step = 100%
Source Step = 100%
Source Step = 100%
Source Step = 100%
Source Step = 100%
Source Step = 100%
Source Step = 100%
Source Step = 100%
Source Step = 100%
Source Step = 100%
Source Step = 100%
Source Step = 100%
Source Step = 100%
Source Step = 100%
Source Step = 100%
Source Step = 100%
Source Step = 100%
Source Step = 100%
Source Step = 100%
Source Step = 100%
Source Step = 100%
Source Step = 100%
Source Step = 100%
Source Step = 100%
Source Step = 100%
Source Step = 100%
Source Step = 100%
Source Step = 100%
Source Step = 100%
Source Step = 100%
Source Step = 100%
Source Step = 100%
Source Step = 100%
Source Step = 100%
Source Step = 100%
Source Step = 100%
Source Step = 100%
Source Step = 100%
Source Step = 100%
Source Step = 100%
Source Step = 100%
Source Step = 100%
Source Step = 100%
Source Step = 100%
Source Step = 100%
Source Step = 100%
Source Step = 100%
Source Step = 100%
Source Step = 100%
Source Step = 100%
Source Step = 100%
Source Step = 100%
Source Step = 100%
Source Step = 100%
Source Step = 100%
Source Step = 100%
Source Step = 100%
Source Step = 100%
Source Step = 100%
Source Step = 100%
Source Step = 100%
Source Step = 100%
Source Step = 100%
Source Step = 100%
Source Step = 100%
Source Step = 100%
Source Step = 100%
Source Step = 100%
Source Step = 100%
Source Step = 100%
Source Step = 100%
Source Step = 100%
Source Step = 100%
Source Step = 100%
Source Step = 100%
Source Step = 100%
Source Step = 100%
Source Step = 100%
Source Step = 100%
Source Step = 100%
Source Step = 100%
Source Step = 100%
Source Step = 100%
Source Step = 100%
Source Step = 100%
Source Step = 100%
Source Step = 100%
Source Step = 100%
Source Step = 100%
Source Step = 100%
Source Step = 100%
Source Step = 100%
Source Step = 100%
Source Step = 100%
Source Step = 100%
Source Step = 100%
Source Step = 100%
Source Step = 100%
Source Step = 100%
Source Step = 100%
Source Step = 100%
Source Step = 100%
Source Step = 100%
Source Step = 100%
Source Step = 100%
Source Step = 100%
Source Step = 100%
Source Step = 100%
Source Step = 100%
Source Step = 100%
Source Step = 100%
Source Step = 100%
Source Step = 100%
Source Step = 100%
Source Step = 100%
Source Step = 100%
Source Step = 100%
Source Step = 100%
Source Step = 100%
Source Step = 100%
Source Step = 100%
Source Step = 100%
Source Step = 100%
Source Step = 100%
Source Step = 100%
Source Step = 100%
Source Step = 100%
Source Step = 100%
Source Step = 100%
Source Step = 100%
Source Step = 100%
Source Step = 100%
Source Step = 100%
Source Step = 100%
Source Step = 100%
Source Step = 100%
Source Step = 100%
Source Step = 100%
Source Step = 100%
Source Step = 100%
Source Step = 100%
Source Step = 100%
Source Step = 100%
Source Step = 100%
Source Step = 100%
Source Step = 100%
Source Step = 100%
Source Step = 100%
Source Step = 100%
Source Step = 100%
Source Step = 100%
Source Step = 100%
Source Step = 100%
Source Step = 100%
Source Step = 100%
Source Step = 100%
Source Step = 100%
Source Step = 100%
Source Step = 100%
Source Step = 100%
Source Step = 100%
Source Step = 100%
Source Step = 100%
Source Step = 100%
Source Step = 100%
Source Step = 100%
Source Step = 100%
Source Step = 100%
Source Step = 100%
Source Step = 100%
Source Step = 100%
Source Step = 100%
Source Step = 100%
Source Step = 100%
Source Step = 100%
Source Step = 100%
Source Step = 100%
Source Step = 100%
Source Step = 100%
Source Step = 100%
Source Step = 100%
Source Step = 100%
Source Step = 100%
Source Step = 100%
Source Step = 100%
Source Step = 100%
Source Step = 100%
Source Step = 100%
Source Step = 100%
Source Step = 100%
Source Step = 100%
Source Step = 100%
Source Step = 100%
Source Step = 100%
Source Step = 100%
Source Step = 100%
Source Step = 100%
Source Step = 100%
Source Step = 100%
Source Step = 100%
Source Step = 100%
Source Step = 100%
Source Step = 100%
Source Step = 100%
Source Step = 100%
Source Step = 100%
Source Step = 100%
Source Step = 100%
Source Step = 100%
Source Step = 100%
Source Step = 100%
Source Step = 100%
Source Step = 100%
Source Step = 100%
Source Step = 100%
Source Step = 100%
Source Step = 100%
Source Step = 100%
Source Step = 100%
Source Step = 100%
Source Step = 100%
Source Step = 100%
Source Step = 100%
Source Step = 100%
Source Step = 100%
Source Step = 100%
Source Step = 100%
Source Step = 100%
Source Step = 100%
Source Step = 100%
Source Step = 100%
Source Step = 100%
Source Step = 100%
Source Step = 100%
Source Step = 100%
Source Step = 100%
Source Step = 100%
Source Step = 100%
Source Step = 100%
Source Step = 100%
Source Step = 100%
Source Step = 100%
Source Step = 100%
Source Step = 100%
Source Step = 100%
Source Step = 100%
Source Step = 100%
Source Step = 100%
Source Step = 100%
Source Step = 100%
Source Step = 100%
Source Step = 100%
Source Step = 100%
Source Step = 100%
Source Step = 100%
Source Step = 100%
Source Step = 100%
Source Step = 100%
Source Step = 100%
Source Step = 100%
Source Step = 100%
Source Step = 100%
Source Step = 100%
Source Step = 100%
Source Step = 100%
Source Step = 100%
Source Step = 100%
Source Step = 100%
Source Step = 100%
Source Step = 100%
Source Step = 100%
Source Step = 100%
Source Step = 100%
Source Step = 100%
Source Step = 100%
Source Step = 100%
Source Step = 100%
Source Step = 100%
Source Step = 100%
Source Step = 100%
Source Step = 100%
Source Step = 100%
Source Step = 100%
Source Step = 100%
Source Step = 100%
Source Step = 100%
Source Step = 100%
Source Step = 100%
Source Step = 100%
Source Step = 100%
Source Step = 100%
Source Step = 100%
Source Step = 100%
Source Step = 100%
Source Step = 100%
Source Step = 100%
Source Step = 100%
Source Step = 100%
Source Step = 100%
Source Step = 100%
Source Step = 100%
Source Step = 100%
Source Step = 100%
Source Step = 100%
Source Step = 100%
Source Step = 100%
Source Step = 100%
Source Step = 100%
Source Step = 100%
Source Step = 100%
Source Step = 100%
Source Step = 100%
Source Step = 100%
Source Step = 100%
Source Step = 100%
Source Step = 100%
Source Step = 100%
Source Step = 100%
Source Step = 100%
Source Step = 100%
Source Step = 100%
Source Step = 100%
Source Step = 100%
Source Step = 100%
Source Step = 100%
Source Step = 100%
Source Step = 100%
Source Step = 100%
Source Step = 100%
Source Step = 100%
Source Step = 100%
Source Step = 100%
Source Step = 100%
Source Step = 100%
Source Step = 100%
Source Step = 100%
Source Step = 100%
Source Step = 100%
Source Step = 100%
Source Step = 100%
Source Step = 100%
Source Step = 100%
Source Step = 100%
Source Step = 100%
Source Step = 100%
Source Step = 100%
Source Step = 100%
Source Step = 100%
Source Step = 100%
Source Step = 100%
Source Step = 100%
Source Step = 100%
Source Step = 100%
Source Step = 100%
Source Step = 100%
Source Step = 100%
Source Step = 100%
Source Step = 100%
Source Step = 100%
Source Step = 100%
Source Step = 100%
Source Step = 100%
Source Step = 100%
Source Step = 100%
Source Step = 100%
Source Step = 100%
Source Step = 100%
Source Step = 100%
Source Step = 100%
Source Step = 100%
Source Step = 100%
Source Step = 100%
Source Step = 100%
Source Step = 100%
Source Step = 100%
Source Step = 100%
Source Step = 100%
Source Step = 100%
Source Step = 100%
Source Step = 100%
Source Step = 100%
Source Step = 100%
Source Step = 100%
Source Step = 100%
Source Step = 100%
Source Step = 100%
Source Step = 100%
Source Step = 100%
Source Step = 100%
Source Step = 100%
Source Step = 100%
Source Step = 100%
Source Step = 100%
Source Step = 100%
Source Step = 100%
Source Step = 100%
Source Step = 100%
Source Step = 100%
Source Step = 100%
Source Step = 100%
Source Step = 100%
Source Step = 100%
Source Step = 100%
Source Step = 100%
Source Step = 100%
Source Step = 100%
Source Step = 100%
Source Step = 100%
Source Step = 100%
Source Step = 100%
Source Step = 100%
Source Step = 100%
Source Step = 100%
Source Step = 100%
Source Step = 100%
Source Step = 100%
Source Step = 100%
Source Step = 100%
Source Step = 100%
Source Step = 100%
Source Step = 100%
Source Step = 100%
Source Step = 100%
Source Step = 100%
Source Step = 100%
Source Step = 100%
Source Step = 100%
Source Step = 100%
Source Step = 100%
Source Step = 100%
Source Step = 100%
Source Step = 100%
Source Step = 100%
Source Step = 100%
Source Step = 100%
Source Step = 100%
Source Step = 100%
Source Step = 100%
Source Step = 100%
Source Step = 100%
Source Step = 100%
Source Step = 100%
Source Step = 100%
Source Step = 100%
Source Step = 100%
Source Step = 100%
Source Step = 100%
Source Step = 100%
Source Step = 100%
Source Step = 100%
Source Step = 100%
Source Step = 100%
Source Step = 100%
Source Step = 100%
Source Step = 100%
Source Step = 100%
Source Step = 100%
Source Step = 100%
Source Step = 100%
Source Step = 100%
Source Step = 100%
Source Step = 100%
Source Step = 100%
Source Step = 100%
Source Step = 100%
Source Step = 100%
Source Step = 100%
Source Step = 100%
Source Step = 100%
Source Step = 100%
Source Step = 100%
Source Step = 100%
Source Step = 100%
Source Step = 100%
Source Step = 100%
Source Step = 100%
Source Step = 100%
Source Step = 100%
Source Step = 100%
Source Step = 100%
Source Step = 100%
Source Step = 100%
Source Step = 100%
Source Step = 100%
Source Step = 100%
Source Step = 100%
Source Step = 100%
Source Step = 100%
Source Step = 100%
Source Step = 100%
Source Step = 100%
Source Step = 100%
Source Step = 100%
Source Step = 100%
Source Step = 100%
Source Step = 100%
Source Step = 100%
Source Step = 100%
Source Step = 100%
Source Step = 100%
Source Step = 100%
Source Step = 100%
Source Step = 100%
Source Step = 100%
Source Step = 100%
Source Step = 100%
Source Step = 100%
Source Step = 100%
Source Step = 100%
Source Step = 100%
Source Step = 100%
Source Step = 100%
Source Step = 100%
Source Step = 100%
Source Step = 100%
Source Step = 100%
Source Step = 100%
Source Step = 100%
Source Step = 100%
Source Step = 100%
Source Step = 100%
Source Step = 100%
Source Step = 100%
Source Step = 100%
Source Step = 100%
Source Step = 100%
Source Step = 100%
Source Step = 100%
Source Step = 100%
Source Step = 100%
Source Step = 100%
Source Step = 100%
Source Step = 100%
Source Step = 100%
Source Step = 100%
Source Step = 100%
Source Step = 100%
Source Step = 100%
Source Step = 100%
Source Step = 100%
Source Step = 100%
Source Step = 100%
Source Step = 100%
Source Step = 100%
Source Step = 100%
Source Step = 100%
Source Step = 100%
Source Step = 100%
Source Step = 100%
Source Step = 100%
Source Step = 100%
Source Step = 100%
Source Step = 100%
Source Step = 100%
Source Step = 100%
Source Step = 100%
Source Step = 100%
Source Step = 100%
Source Step = 100%
Source Step = 100%
Source Step = 100%
Source Step = 100%
Source Step = 100%
Source Step = 100%
Source Step = 100%
Source Step = 100%
Source Step = 100%
Source Step = 100%
Source Step = 100%
Source Step = 100%
Source Step = 100%
Source Step = 100%
Source Step = 100%
Source Step = 100%
Source Step = 100%
Source Step = 100%
Source Step = 100%
Source Step = 100%
Source Step = 100%
Source Step = 100%
Source Step = 100%
Source Step = 100%
Source Step = 100%
Source Step = 100%
Source Step = 100%
Source Step = 100%
Source Step = 100%
Source Step = 100%
Source Step = 100%
Source Step = 100%
Source Step = 100%
Source Step = 100%
Source Step = 100%
Source Step = 100%
Source Step = 100%
Source Step = 100%
Source Step = 100%
Source Step = 100%
Source Step = 100%
Source Step = 100%
Source Step = 100%
Source Step = 100%
Source Step = 100%
Source Step = 100%
Source Step = 100%
Source Step = 100%
Source Step = 100%
Source Step = 100%
Source Step = 100%
Source Step = 100%
Source Step = 100%
Source Step = 100%
Source Step = 100%
Source Step = 100%
Source Step = 100%
Source Step = 100%
Source Step = 100%
Source Step = 100%
Source Step = 100%
Source Step = 100%
Source Step = 100%
Source Step = 100%
Source Step = 100%
Source Step = 100%
Source Step = 100%
Source Step = 100%
Source Step = 100%
Source Step = 100%
Source Step = 100%
Source Step = 100%
Source Step = 100%
Source Step = 100%
Source Step = 100%
Source Step = 100%
Source Step = 100%
Source Step = 100%
Source Step = 100%
Source Step = 100%
Source Step = 100%
Source Step = 100%
Source Step = 100%
Source Step = 100%
Source Step = 100%
Source Step = 100%
Source Step = 100%
Source Step = 100%
Source Step = 100%
Source Step = 100%
Source Step = 100%
Source Step = 100%
Source Step = 100%
Source Step = 100%
Source Step = 100%
Source Step = 100%
Source Step = 100%
Source Step = 100%
Source Step = 100%
Source Step = 100%
Source Step = 100%
Source Step = 100%
Source Step = 100%
Source Step = 100%
Source Step = 100%
Source Step = 100%
Source Step = 100%
Source Step = 100%
Source Step = 100%
Source Step = 100%
Source Step = 100%
Source Step = 100%
Source Step = 100%
Source Step = 100%
Source Step = 100%
Source Step = 100%
Source Step = 100%
Source Step = 100%
Source Step = 100%
Source Step = 100%
Source Step = 100%
Source Step = 100%
Source Step = 100%
Source Step = 100%
Source Step = 100%
Source Step = 100%
Source Step = 100%
Source Step = 100%
Source Step = 100%
Source Step = 100%
Source Step = 100%
Source Step = 100%
Source Step = 100%
Source Step = 100%
Source Step = 100%
Source Step = 100%
Source Step = 100%
Source Step = 100%
Source Step = 100%
Source Step = 100%
Source Step = 100%
Source Step = 100%
Source Step = 100%
Source Step = 100%
Source Step = 100%
Source Step = 100%
Source Step = 100%
Source Step = 100%
Source Step = 100%
Source Step = 100%
Source Step = 100%
Source Step = 100%
Source Step = 100%
Source Step = 100%
Source Step = 100%
Source Step = 100%
Source Step = 100%
Source Step = 100%
Source Step = 100%
Source Step = 100%
Source Step = 100%
Source Step = 100%
Source Step = 100%
Source Step = 100%
[...]
Source Step = 100%
Source Step = 100%
Source Step = 100%
Source Step = 100%
Source Step = 100%
Source Step = 100%
Source Step = 100%
Source Step = 100%
Source Step = 100%
Source Step = 100%
Source Step = 100%
Source Step = 100%
Source Step = 100%
Source Step = 100%
Source Step = 100%
Source Step = 100%
Source Step = 100%
Source Step = 100%
Source Step = 100%
Source Step = 100%
Source Step = 100%
Source Step = 100%
Source Step = 100%
Source Step = 100%
Source Step = 100%
Source Step = 100%
Source Step = 100%
Source Step = 100%
Source Step = 100%
Source Step = 100%
Source Step = 100%
Source Step = 100%
Source Step = 100%
Source Step = 100%
Source Step = 100%
Source Step = 100%
Source Step = 100%
Source Step = 100%
Source Step = 100%
Source Step = 100%
Source Step = 100%
Source Step = 100%
Source Step = 100%
Source Step = 100%
Source Step = 100%
Source Step = 100%
Source Step = 100%
Source Step = 100%
Source Step = 100%
Source Step = 100%
Source Step = 100%
Source Step = 100%
Source Step = 100%
Source Step = 100%
Source Step = 100%
Source Step = 100%
Source Step = 100%
Source Step = 100%
Source Step = 100%
Source Step = 100%
Source Step = 100%
Source Step = 100%
Source Step = 100%
Source Step = 100%
Source Step = 100%
Source Step = 100%
Source Step = 100%
Source Step = 100%
Source Step = 100%
Source Step = 100%
Source Step = 100%
Source Step = 100%
Source Step = 100%
Source Step = 100%
Source Step = 100%
Source Step = 100%
Source Step = 100%
Source Step = 100%
Source Step = 100%
Source Step = 100%
Source Step = 100%
Source Step = 100%
Source Step = 100%
Source Step = 100%
Source Step = 100%
Source Step = 100%
Source Step = 100%
Source Step = 100%
Source Step = 100%
Source Step = 100%
Source Step = 100%
Source Step = 100%
Source Step = 100%
Source Step = 100%
Source Step = 100%
Source Step = 100%
Source Step = 100%
Source Step = 100%
Source Step = 100%
Source Step = 100%
Source Step = 100%
Source Step = 100%
Source Step = 100%
Source Step = 100%
Source Step = 100%
Source Step = 100%
Source Step = 100%
Source Step = 100%
Source Step = 100%
Source Step = 100%
Source Step = 100%
Source Step = 100%
Source Step = 100%
Source Step = 100%
Source Step = 100%
Source Step = 100%
Source Step = 100%
Source Step = 100%
Source Step = 100%
Source Step = 100%
Source Step = 100%
Source Step = 100%
Source Step = 100%
Source Step = 100%
Source Step = 100%
Source Step = 100%
Source Step = 100%
Source Step = 100%
Source Step = 100%
Source Step = 100%
Source Step = 100%
Source Step = 100%
Source Step = 100%
Source Step = 100%
Source Step = 100%
Source Step = 100%
Source Step = 100%
Source Step = 100%
Source Step = 100%
Source Step = 100%
Source Step = 100%
Source Step = 100%
Source Step = 100%
Source Step = 100%
Source Step = 100%
Source Step = 100%
Source Step = 100%
Source Step = 100%
Source Step = 100%
Source Step = 100%
Source Step = 100%
Source Step = 100%
Source Step = 100%
Source Step = 100%
Source Step = 100%
Source Step = 100%
Source Step = 100%
Source Step = 100%
Source Step = 100%
Source Step = 100%
Source Step = 100%
Source Step = 100%
Source Step = 100%
Source Step = 100%
Source Step = 100%
Source Step = 100%
Source Step = 100%
Source Step = 100%
Source Step = 100%
Source Step = 100%
Source Step = 100%
Source Step = 100%
Source Step = 100%
Source Step = 100%
Source Step = 100%
Source Step = 100%
Source Step = 100%
Source Step = 100%
Source Step = 100%
Source Step = 100%
Source Step = 100%
Source Step = 100%
Source Step = 100%
Source Step = 100%
Source Step = 100%
Source Step = 100%
Source Step = 100%
Source Step = 100%
Source Step = 100%
Source Step = 100%
Source Step = 100%
Source Step = 100%
Source Step = 100%
Source Step = 100%
Source Step = 100%
Source Step = 100%
Source Step = 100%
Source Step = 100%
Source Step = 100%
Source Step = 100%
Source Step = 100%
Source Step = 100%
Source Step = 100%
Source Step = 100%
Source Step = 100%
Source Step = 100%
Source Step = 100%
Source Step = 100%
Source Step = 100%
Source Step = 100%
Source Step = 100%
Source Step = 100%
Source Step = 100%
Source Step = 100%
Source Step = 100%
Source Step = 100%
Source Step = 100%
Source Step = 100%
Source Step = 100%
Source Step = 100%
Source Step = 100%
Source Step = 100%
Source Step = 100%
Source Step = 100%
Source Step = 100%
Source Step = 100%
Source Step = 100%
Source Step = 100%
Source Step = 100%
Source Step = 100%
Source Step = 100%
Source Step = 100%
Source Step = 100%
Source Step = 100%
Source Step = 100%
Source Step = 100%
Source Step = 100%
Source Step = 100%
Source Step = 100%
Source Step = 100%
Source Step = 100%
Source Step = 100%
Source Step = 100%
Source Step = 100%
Source Step = 100%
Source Step = 100%
Source Step = 100%
Source Step = 100%
Source Step = 100%
Source Step = 100%
Source Step = 100%
Source Step = 100%
Source Step = 100%
Source Step = 100%
Source Step = 100%
Source Step = 100%
Source Step = 100%
Source Step = 100%
Source Step = 100%
Source Step = 100%
Source Step = 100%
Source Step = 100%
Source Step = 100%
Source Step = 100%
Source Step = 100%
Source Step = 100%
Source Step = 100%
Source Step = 100%
Source Step = 100%
Source Step = 100%
Source Step = 100%
Source Step = 100%
Source Step = 100%
Source Step = 100%
Source Step = 100%
Source Step = 100%
Source Step = 100%
Source Step = 100%
Source Step = 100%
Source Step = 100%
Source Step = 100%
Source Step = 100%
Source Step = 100%
Source Step = 100%
Source Step = 100%
Source Step = 100%
Source Step = 100%
Source Step = 100%
Source Step = 100%
Source Step = 100%
Source Step = 100%
Source Step = 100%
Source Step = 100%
Source Step = 100%
Source Step = 100%
Source Step = 100%
Source Step = 100%
Source Step = 100%
Source Step = 100%
Source Step = 100%
Source Step = 100%
Source Step = 100%
Source Step = 100%
Source Step = 100%
Source Step = 100%
Source Step = 100%
Source Step = 100%
Source Step = 100%
Source Step = 100%
Source Step = 100%
Source Step = 100%
Source Step = 100%
Source Step = 100%
Source Step = 100%
Source Step = 100%
Source Step = 100%
Source Step = 100%
Source Step = 100%
Source Step = 100%
Source Step = 100%
Source Step = 100%
Source Step = 100%
Source Step = 100%
Source Step = 100%
Source Step = 100%
Source Step = 100%
Source Step = 100%
Source Step = 100%
Source Step = 100%
Source Step = 100%
Source Step = 100%
Source Step = 100%
Source Step = 100%
Source Step = 100%
Source Step = 100%
Source Step = 100%
Source Step = 100%
Source Step = 100%
Source Step = 100%
Source Step = 100%
Source Step = 100%
Source Step = 100%
Source Step = 100%
Source Step = 100%
Source Step = 100%
Source Step = 100%
Source Step = 100%
Source Step = 100%
Source Step = 100%
Source Step = 100%
Source Step = 100%
Source Step = 100%
Source Step = 100%
Source Step = 100%
Source Step = 100%
Source Step = 100%
Source Step = 100%
Source Step = 100%
Source Step = 100%
Source Step = 100%
Source Step = 100%
Source Step = 100%
Source Step = 100%
Source Step = 100%
Source Step = 100%
Source Step = 100%
Source Step = 100%
Source Step = 100%
Source Step = 100%
Source Step = 100%
Source Step = 100%
Source Step = 100%
Source Step = 100%
Source Step = 100%
Source Step = 100%
Source Step = 100%
Source Step = 100%
Source Step = 100%
Source Step = 100%
Source Step = 100%
Source Step = 100%
Source Step = 100%
Source Step = 100%
Source Step = 100%
Source Step = 100%
Source Step = 100%
Source Step = 100%
Source Step = 100%
Source Step = 100%
Source Step = 100%
Source Step = 100%
Source Step = 100%
Source Step = 100%
Source Step = 100%
Source Step = 100%
Source Step = 100%
Source Step = 100%
Source Step = 100%
Source Step = 100%
Source Step = 100%
Source Step = 100%
Source Step = 100%
Source Step = 100%
Source Step = 100%
Source Step = 100%
Source Step = 100%
Source Step = 100%
Source Step = 100%
Source Step = 100%
Source Step = 100%
Source Step = 100%
Source Step = 100%
Source Step = 100%
Source Step = 100%
Source Step = 100%
Source Step = 100%
Source Step = 100%
Source Step = 100%
Source Step = 100%
Source Step = 100%
Source Step = 100%
Source Step = 100%
Source Step = 100%
Source Step = 100%
Source Step = 100%
Source Step = 100%
Source Step = 100%
Source Step = 100%
Source Step = 100%
Source Step = 100%
Source Step = 100%
Source Step = 100%
Source Step = 100%
Source Step = 100%
Source Step = 100%
Source Step = 100%
Source Step = 100%
Source Step = 100%
Source Step = 100%
Source Step = 100%
Source Step = 100%
Source Step = 100%
Source Step = 100%
Source Step = 100%
Source Step = 100%
Source Step = 100%
Source Step = 100%
Source Step = 100%
Source Step = 100%
Source Step = 100%
Source Step = 100%
Source Step = 100%
Source Step = 100%
Source Step = 100%
Source Step = 100%
Source Step = 100%
Source Step = 100%
Source Step = 100%
Source Step = 100%
Source Step = 100%
Source Step = 100%
Source Step = 100%
Source Step = 100%
Source Step = 100%
Source Step = 100%
Source Step = 100%
Source Step = 100%
Source Step = 100%
Source Step = 100%
Source Step = 100%
Source Step = 100%
Source Step = 100%
Source Step = 100%
Source Step = 100%
Source Step = 100%
Source Step = 100%
Source Step = 100%
Source Step = 100%
Source Step = 100%
Source Step = 100%
Source Step = 100%
Source Step = 100%
Source Step = 100%
Source Step = 100%
Source Step = 100%
Source Step = 100%
Source Step = 100%
Source Step = 100%
Source Step = 100%
Source Step = 100%
Source Step = 100%
Source Step = 100%
Source Step = 100%
Source Step = 100%
Source Step = 100%
Source Step = 100%
Source Step = 100%
Source Step = 100%
Source Step = 100%
Source Step = 100%
Source Step = 100%
Source Step = 100%
Source Step = 100%
Source Step = 100%
Source Step = 100%
Source Step = 100%
Source Step = 100%
Source Step = 100%
Source Step = 100%
Source Step = 100%
Source Step = 100%
Source Step = 100%
Source Step = 100%
Source Step = 100%
Source Step = 100%
Source Step = 100%
Source Step = 100%
Source Step = 100%
Source Step = 100%
Source Step = 100%
Source Step = 100%
Source Step = 100%
Source Step = 100%
Source Step = 100%
Source Step = 100%
Source Step = 100%
Source Step = 100%
Source Step = 100%
Source Step = 100%
Source Step = 100%
Source Step = 100%
Source Step = 100%
Source Step = 100%
Source Step = 100%
Source Step = 100%
Source Step = 100%
Source Step = 100%
Source Step = 100%
Source Step = 100%
Source Step = 100%
Source Step = 100%
Source Step = 100%
Source Step = 100%
Source Step = 100%
Source Step = 100%
Source Step = 100%
Source Step = 100%
Source Step = 100%
Source Step = 100%
Source Step = 100%
Source Step = 100%
Source Step = 100%
Source Step = 100%
Source Step = 100%
Source Step = 100%
Source Step = 100%
Source Step = 100%
Source Step = 100%
Source Step = 100%
Source Step = 100%
Source Step = 100%
Source Step = 100%
Source Step = 100%
Source Step = 100%
Source Step = 100%
Source Step = 100%
Source Step = 100%
Source Step = 100%
Source Step = 100%
Source Step = 100%
Source Step = 100%
Source Step = 100%
Source Step = 100%
Source Step = 100%
Source Step = 100%
Source Step = 100%
Source Step = 100%
Source Step = 100%
Source Step = 100%
Source Step = 100%
Source Step = 100%
Source Step = 100%
Source Step = 100%
Source Step = 100%
Source Step = 100%
Source Step = 100%
Source Step = 100%
Source Step = 100%
Source Step = 100%
Source Step = 100%
Source Step = 100%
Source Step = 100%
Source Step = 100%
Source Step = 100%
Source Step = 100%
Source Step = 100%
Source Step = 100%
Source Step = 100%
Source Step = 100%
Source Step = 100%
Source Step = 100%
Source Step = 100%
Source Step = 100%
Source Step = 100%
Source Step = 100%
Source Step = 100%
Source Step = 100%
Source Step = 100%
Source Step = 100%
Source Step = 100%
Source Step = 100%
Source Step = 100%
Source Step = 100%
Source Step = 100%
Source Step = 100%
Source Step = 100%
Source Step = 100%
Source Step = 100%
Source Step = 100%
Source Step = 100%
Source Step = 100%
Source Step = 100%
Source Step = 100%
Source Step = 100%
Source Step = 100%
Source Step = 100%
Source Step = 100%
Source Step = 100%
Source Step = 100%
Source Step = 100%
Source Step = 100%
Source Step = 100%
Source Step = 100%
Source Step = 100%
Source Step = 100%
Source Step = 100%
Source Step = 100%
Source Step = 100%
Source Step = 100%
Source Step = 100%
Source Step = 100%
Source Step = 100%
Source Step = 100%
Source Step = 100%
Source Step = 100%
Source Step = 100%
Source Step = 100%
Source Step = 100%
Source Step = 100%
Source Step = 100%
Source Step = 100%
Source Step = 100%
Source Step = 100%
Source Step = 100%
Source Step = 100%
Source Step = 100%
Source Step = 100%
Source Step = 100%
Source Step = 100%
Source Step = 100%
Source Step = 100%
Source Step = 100%
Source Step = 100%
Source Step = 100%
Source Step = 100%
Source Step = 100%
Source Step = 100%
Source Step = 100%
Source Step = 100%
Source Step = 100%
Source Step = 100%
Source Step = 100%
Source Step = 100%
Source Step = 100%
Source Step = 100%
Source Step = 100%
Source Step = 100%
Source Step = 100%
Source Step = 100%
Source Step = 100%
Source Step = 100%
Source Step = 100%
Source Step = 100%
Source Step = 100%
Source Step = 100%
Source Step = 100%
Source Step = 100%
Source Step = 100%
Source Step = 100%
Source Step = 100%
Source Step = 100%
Source Step = 100%
Source Step = 100%
Source Step = 100%
Source Step = 100%
Source Step = 100%
Source Step = 100%
Source Step = 100%
Source Step = 100%
Source Step = 100%
Source Step = 100%
Source Step = 100%
Source Step = 100%
Source Step = 100%
Source Step = 100%
Source Step = 100%
Source Step = 100%
Source Step = 100%
Source Step = 100%
Source Step = 100%
Source Step = 100%
Source Step = 100%
Source Step = 100%
Source Step = 100%
Source Step = 100%
Source Step = 100%
Source Step = 100%
Source Step = 100%
Source Step = 100%
Source Step = 100%
Source Step = 100%
Source Step = 100%
Source Step = 100%
Source Step = 100%
Source Step = 100%
Source Step = 100%
Source Step = 100%
Source Step = 100%
Source Step = 100%
Source Step = 100%
Source Step = 100%
Source Step = 100%
Source Step = 100%
Source Step = 100%
Source Step = 100%
Source Step = 100%
Source Step = 100%
Source Step = 100%
Source Step = 100%
Source Step = 100%
Source Step = 100%
Source Step = 100%
Source Step = 100%
Source Step = 100%
Source Step = 100%
Source Step = 100%
Source Step = 100%
Source Step = 100%
Source Step = 100%
Source Step = 100%
Source Step = 100%
Source Step = 100%
Source Step = 100%
Source Step = 100%
Source Step = 100%
Source Step = 100%
Source Step = 100%
Source Step = 100%
Source Step = 100%
Source Step = 100%
Source Step = 100%
Source Step = 100%
Source Step = 100%
Source Step = 100%
Source Step = 100%
Source Step = 100%
Source Step = 100%
Source Step = 100%
Source Step = 100%
Source Step = 100%
Source Step = 100%
Source Step = 100%
Source Step = 100%
Source Step = 100%
Source Step = 100%
Source Step = 100%
Source Step = 100%
Source Step = 100%
Source Step = 100%
Source Step = 100%
Source Step = 100%
Source Step = 100%
Source Step = 100%
Source Step = 100%
Source Step = 100%
Source Step = 100%
Source Step = 100%
Source Step = 100%
Source Step = 100%
Source Step = 100%
Source Step = 100%
Source Step = 100%
Source Step = 100%
Source Step = 100%
Source Step = 100%
Source Step = 100%
Source Step = 100%
Source Step = 100%
Source Step = 100%
Source Step = 100%
Source Step = 100%
Source Step = 100%
Source Step = 100%
Source Step = 100%
Source Step = 100%
Source Step = 100%
Source Step = 100%
Source Step = 100%
Source Step = 100%
Source Step = 100%
Source Step = 100%
Source Step = 100%
Source Step = 100%
Source Step = 100%
Source Step = 100%
Source Step = 100%
Source Step = 100%
Source Step = 100%
Source Step = 100%
Source Step = 100%
Source Step = 100%
Source Step = 100%
Source Step = 100%
Source Step = 100%
Source Step = 100%
Source Step = 100%
Source Step = 100%
Source Step = 100%
Source Step = 100%
Source Step = 100%
Source Step = 100%
Source Step = 100%
Source Step = 100%
Source Step = 100%
Source Step = 100%
Source Step = 100%
Source Step = 100%
Source Step = 100%
Source Step = 100%
Source Step = 100%
Source Step = 100%
Source Step = 100%
Source Step = 100%
Source Step = 100%
Source Step = 100%
Source Step = 100%
Source Step = 100%
Source Step = 100%
Source Step = 100%
Source Step = 100%
Source Step = 100%
Source Step = 100%
Source Step = 100%
Source Step = 100%
Source Step = 100%
Source Step = 100%
Source Step = 100%
Source Step = 100%
Source Step = 100%
Source Step = 100%
Source Step = 100%
Source Step = 100%
Source Step = 100%
Source Step = 100%
Source Step = 100%
Source Step = 100%
Source Step = 100%
Source Step = 100%
Source Step = 100%
Source Step = 100%
Source Step = 100%
Source Step = 100%
Source Step = 100%
Source Step = 100%
Source Step = 100%
Source Step = 100%
Source Step = 100%
Source Step = 100%
Source Step = 100%
Source Step = 100%
Source Step = 100%
Source Step = 100%
Source Step = 100%
Source Step = 100%
Source Step = 100%
Source Step = 100%
Source Step = 100%
Source Step = 100%
Source Step = 100%
Source Step = 100%
Source Step = 100%
Source Step = 100%
Source Step = 100%
Source Step = 100%
Source Step = 100%
Source Step = 100%
Source Step = 100%
Source Step = 100%
Source Step = 100%
Source Step = 100%
Source Step = 100%
Source Step = 100%
Source Step = 100%
Source Step = 100%
Source Step = 100%
Source Step = 100%
Source Step = 100%
Source Step = 100%
Source Step = 100%
Source Step = 100%
Source Step = 100%
Source Step = 100%
Source Step = 100%
Source Step = 100%
Source Step = 100%
Source Step = 100%
Source Step = 100%
Source Step = 100%
Source Step = 100%
Source Step = 100%
Source Step = 100%
Source Step = 100%
Source Step = 100%
Source Step = 100%
Source Step = 100%
Source Step = 100%
Source Step = 100%
Source Step = 100%
Source Step = 100%
Source Step = 100%
Source Step = 100%
Source Step = 100%
Source Step = 100%
Source Step = 100%
Source Step = 100%
Source Step = 100%
Source Step = 100%
Source Step = 100%
Source Step = 100%
Source Step = 100%
Source Step = 100%
Source Step = 100%
Source Step = 100%
Source Step = 100%
Source Step = 100%
Source Step = 100%
Source Step = 100%
Source Step = 100%
Source Step = 100%
Source Step = 100%
Source Step = 100%
Source Step = 100%
Source Step = 100%
Source Step = 100%
Source Step = 100%
Source Step = 100%
Source Step = 100%
Source Step = 100%
Source Step = 100%
Source Step = 100%
Source Step = 100%
Source Step = 100%
Source Step = 100%
Source Step = 100%
Source Step = 100%
Source Step = 100%
Source Step = 100%
Source Step = 100%
Source Step = 100%
Source Step = 100%
Source Step = 100%
Source Step = 100%
Source Step = 100%
Source Step = 100%
Source Step = 100%
Source Step = 100%
Source Step = 100%
Source Step = 100%
Source Step = 100%
Source Step = 100%
Source Step = 100%
Source Step = 100%
Source Step = 100%
Source Step = 100%
Source Step = 100%
Source Step = 100%
Source Step = 100%
Source Step = 100%
Source Step = 100%
Source Step = 100%
Source Step = 100%
Source Step = 100%
Source Step = 100%
Source Step = 100%
Source Step = 100%
Source Step = 100%
Source Step = 100%
Source Step = 100%
Source Step = 100%
Source Step = 100%
Source Step = 100%
Source Step = 100%
Source Step = 100%
Source Step = 100%
Source Step = 100%
Source Step = 100%
Source Step = 100%
Source Step = 100%
Source Step = 100%
Source Step = 100%
Source Step = 100%
Source Step = 100%
Source Step = 100%
Source Step = 100%
Source Step = 100%
Source Step = 100%
Source Step = 100%
Source Step = 100%
Source Step = 100%
Source Step = 100%
Source Step = 100%
Source Step = 100%
Source Step = 100%
Source Step = 100%
Source Step = 100%
Source Step = 100%
Source Step = 100%
Source Step = 100%
Source Step = 100%
Source Step = 100%
Source Step = 100%
Source Step = 100%
Source Step = 100%
Source Step = 100%
Source Step = 100%
Source Step = 100%
Source Step = 100%
Source Step = 100%
Source Step = 100%
Source Step = 100%
Source Step = 100%
Source Step = 100%
Source Step = 100%
Source Step = 100%
Source Step = 100%
Source Step = 100%
Source Step = 100%
Source Step = 100%
Source Step = 100%
Source Step = 100%
Source Step = 100%
Source Step = 100%
