Circuit: * C:\git\Draft1.asc

Eg: Missing value, assumed 0V @ DC
Direct Newton iteration failed to find .op point.  (Use ".option noopiter" to skip.)
Starting Gmin stepping
Gmin = 10
Gmin = 1.07374
Gmin = 0.115292
Gmin = 0.0123794
Gmin = 0.00132923
Gmin = 0.000142725
Gmin = 1.5325e-005
Gmin = 1.6455e-006
Gmin = 1.76685e-007
Gmin = 1.89714e-008
vernier = 0.5
vernier = 0.25
Gmin = 5.50669e-009
vernier = 0.333333
vernier = 0.444444
Gmin = 2.55608e-009
vernier = 0.222222
vernier = 0.111111
vernier = 0.148148
Gmin = 2.22051e-009
vernier = 0.197531
vernier = 0.263374
Gmin = 1.39886e-009
vernier = 0.131687
vernier = 0.0658435
vernier = 0.0877914
Gmin = 1.28744e-009
vernier = 0.117055
vernier = 0.156073
Gmin = 9.76467e-010
vernier = 0.0780367
vernier = 0.0390184
vernier = 0.0520245
Gmin = 9.29748e-010
vernier = 0.0693659
vernier = 0.0924879
Gmin = 7.88499e-010
vernier = 0.123317
vernier = 0.0616586
vernier = 0.0308293
Gmin = 6.9262e-010
vernier = 0.0411057
vernier = 0.0548076
Gmin = 6.27972e-010
vernier = 0.0730768
vernier = 0.0365384
Gmin = 5.5565e-010
vernier = 0.0182692
vernier = 0.0243589
Gmin = 5.30102e-010
vernier = 0.0324786
vernier = 0.0433047
Gmin = 4.8827e-010
vernier = 0.0577396
vernier = 0.0288698
Gmin = 4.41629e-010
vernier = 0.0144349
vernier = 0.0192465
Gmin = 4.25497e-010
vernier = 0.025662
vernier = 0.0342161
Gmin = 3.98718e-010
vernier = 0.0456214
Gmin = 3.60012e-010
vernier = 0.0608285
vernier = 0.0304143
vernier = 0.0152071
vernier = 0.0202762
Gmin = 3.49692e-010
vernier = 0.0270349
Gmin = 3.29117e-010
vernier = 0.0360465
vernier = 0.048062
vernier = 0.024031
vernier = 0.0120155
Gmin = 3.10935e-010
vernier = 0.0160207
Gmin = 2.99947e-010
vernier = 0.0213609
vernier = 0.0284812
Gmin = 2.82384e-010
vernier = 0.0379749
vernier = 0.0189874
vernier = 0.00949371
Gmin = 2.75125e-010
vernier = 0.0126583
vernier = 0.0168777
Gmin = 2.6545e-010
vernier = 0.0225036
vernier = 0.0300048
Gmin = 2.50735e-010
vernier = 0.0400064
vernier = 0.0200032
vernier = 0.0100016
Gmin = 2.41535e-010
vernier = 0.0133355
vernier = 0.0177806
Gmin = 2.33499e-010
vernier = 0.0237075
Gmin = 2.21402e-010
vernier = 0.03161
vernier = 0.015805
vernier = 0.00790249
vernier = 0.0105366
Gmin = 2.18077e-010
vernier = 0.0140489
Gmin = 2.11303e-010
vernier = 0.0187318
vernier = 0.0249757
Gmin = 2.00409e-010
vernier = 0.033301
vernier = 0.0166505
vernier = 0.00832524
Gmin = 1.95883e-010
vernier = 0.0111003
vernier = 0.0148004
Gmin = 1.89827e-010
vernier = 0.0197339
vernier = 0.0263119
vernier = 0.0131559
Gmin = 1.82948e-010
vernier = 0.00657796
vernier = 0.00877062
Gmin = 1.79868e-010
vernier = 0.0116942
vernier = 0.0155922
Gmin = 1.74609e-010
vernier = 0.0207896
Gmin = 1.66648e-010
vernier = 0.0277195
vernier = 0.0138597
vernier = 0.00692986
vernier = 0.00923982
Gmin = 1.64451e-010
vernier = 0.0123198
Gmin = 1.59961e-010
vernier = 0.0164263
vernier = 0.0219018
vernier = 0.0109509
vernier = 0.00547544
Gmin = 1.55863e-010
vernier = 0.00730059
Gmin = 1.53325e-010
vernier = 0.00973411
vernier = 0.0129788
Gmin = 1.4916e-010
vernier = 0.0173051
vernier = 0.0230734
vernier = 0.0115367
Gmin = 1.44408e-010
vernier = 0.00576836
vernier = 0.00769114
Gmin = 1.42273e-010
vernier = 0.0102549
vernier = 0.0136731
Gmin = 1.38618e-010
vernier = 0.0182308
vernier = 0.00911542
vernier = 0.00455771
Gmin = 1.36272e-010
vernier = 0.00607695
vernier = 0.00810259
Gmin = 1.34185e-010
vernier = 0.0108035
Gmin = 1.30967e-010
vernier = 0.0144046
vernier = 0.0192061
vernier = 0.00960307
vernier = 0.00480153
Gmin = 1.28019e-010
vernier = 0.00640204
Gmin = 1.26189e-010
vernier = 0.00853606
vernier = 0.0113814
Gmin = 1.23178e-010
vernier = 0.0151752
vernier = 0.0202336
vernier = 0.0101168
Gmin = 1.19728e-010
vernier = 0.0050584
vernier = 0.00674453
Gmin = 1.18175e-010
vernier = 0.00899271
vernier = 0.0119903
Gmin = 1.15508e-010
vernier = 0.015987
vernier = 0.00799351
vernier = 0.00399676
Gmin = 1.13792e-010
vernier = 0.00532901
vernier = 0.00710534
Gmin = 1.12262e-010
vernier = 0.00947379
Gmin = 1.09897e-010
vernier = 0.0126317
vernier = 0.0168423
vernier = 0.00842114
vernier = 0.00421057
Gmin = 1.07724e-010
vernier = 0.00561409
Gmin = 1.06373e-010
vernier = 0.00748545
vernier = 0.0099806
Gmin = 1.04143e-010
vernier = 0.0133075
vernier = 0.0177433
vernier = 0.00887164
Gmin = 1.0158e-010
vernier = 0.00443582
vernier = 0.00591443
Gmin = 1.00424e-010
vernier = 0.0078859
vernier = 0.0105145
Gmin = 9.84329e-011
vernier = 0.0140194
vernier = 0.00700968
vernier = 0.00350484
Gmin = 9.71491e-011
vernier = 0.00467312
vernier = 0.00623083
Gmin = 9.60027e-011
vernier = 0.00830777
Gmin = 9.42266e-011
vernier = 0.011077
vernier = 0.0147694
vernier = 0.00738468
vernier = 0.00369234
Gmin = 9.25905e-011
vernier = 0.00492312
Gmin = 9.15711e-011
vernier = 0.00656416
vernier = 0.00875221
Gmin = 8.98854e-011
vernier = 0.0116696
vernier = 0.0058348
vernier = 0.0029174
Gmin = 8.83921e-011
vernier = 0.00388987
Gmin = 8.76222e-011
vernier = 0.00518649
vernier = 0.00691532
Gmin = 8.63449e-011
vernier = 0.00922042
vernier = 0.0122939
vernier = 0.00614694
Gmin = 8.48666e-011
vernier = 0.00307347
vernier = 0.00409796
Gmin = 8.41957e-011
vernier = 0.00546395
vernier = 0.00728526
Gmin = 8.30354e-011
vernier = 0.00971368
Gmin = 8.12422e-011
vernier = 0.0129516
vernier = 0.00647579
vernier = 0.00323789
vernier = 0.00431719
Gmin = 8.07398e-011
vernier = 0.00575625
Gmin = 7.97016e-011
vernier = 0.007675
vernier = 0.0102333
Gmin = 7.7989e-011
vernier = 0.0136444
vernier = 0.00682222
vernier = 0.00341111
Gmin = 7.72615e-011
vernier = 0.00454814
vernier = 0.00606419
Gmin = 7.62729e-011
vernier = 0.00808559
vernier = 0.0107808
vernier = 0.00539039
Gmin = 7.51263e-011
vernier = 0.00269519
vernier = 0.00359359
Gmin = 7.46053e-011
vernier = 0.00479145
vernier = 0.0063886
Gmin = 7.37028e-011
vernier = 0.00851814
Gmin = 7.2305e-011
vernier = 0.0113575
vernier = 0.00567876
vernier = 0.00283938
vernier = 0.00378584
Gmin = 7.19128e-011
vernier = 0.00504778
Gmin = 7.11011e-011
vernier = 0.00673037
vernier = 0.00897383
Gmin = 6.97594e-011
vernier = 0.0119651
vernier = 0.00598255
vernier = 0.00299128
Gmin = 6.91883e-011
vernier = 0.00398837
vernier = 0.00531782
Gmin = 6.84113e-011
vernier = 0.00709043
vernier = 0.0094539
vernier = 0.00472695
Gmin = 6.75086e-011
vernier = 0.00236347
vernier = 0.0031513
Gmin = 6.70978e-011
vernier = 0.00420173
vernier = 0.00560231
Gmin = 6.63855e-011
vernier = 0.00746974
Gmin = 6.528e-011
vernier = 0.00995965
vernier = 0.00497983
vernier = 0.00248991
vernier = 0.00331988
Gmin = 6.49693e-011
vernier = 0.00442651
Gmin = 6.43258e-011
vernier = 0.00590201
vernier = 0.00786935
Gmin = 6.32599e-011
vernier = 0.0104925
vernier = 0.00524623
vernier = 0.00262311
Gmin = 6.28056e-011
vernier = 0.00349749
vernier = 0.00466331
Gmin = 6.21866e-011
vernier = 0.00621775
vernier = 0.00829033
vernier = 0.00414516
Gmin = 6.14663e-011
vernier = 0.00207258
vernier = 0.00276344
Gmin = 6.11382e-011
vernier = 0.00368459
vernier = 0.00491278
Gmin = 6.05686e-011
vernier = 0.00655038
Gmin = 5.96831e-011
vernier = 0.00873383
vernier = 0.00436692
vernier = 0.00218346
vernier = 0.00291128
Gmin = 5.94339e-011
vernier = 0.0038817
Gmin = 5.89173e-011
vernier = 0.0051756
vernier = 0.0069008
Gmin = 5.80603e-011
vernier = 0.00920106
vernier = 0.00460053
vernier = 0.00230027
Gmin = 5.76944e-011
vernier = 0.00306702
vernier = 0.00408936
Gmin = 5.71954e-011
vernier = 0.00545248
vernier = 0.00726997
Gmin = 5.64088e-011
vernier = 0.00969329
vernier = 0.00484665
vernier = 0.00242332
Gmin = 5.58989e-011
vernier = 0.0032311
vernier = 0.00430813
Gmin = 5.54419e-011
vernier = 0.00574417
Gmin = 5.47305e-011
vernier = 0.00765889
vernier = 0.00382944
vernier = 0.00191472
vernier = 0.00255296
Gmin = 5.453e-011
vernier = 0.00340395
Gmin = 5.41142e-011
vernier = 0.0045386
vernier = 0.00605146
Gmin = 5.34232e-011
vernier = 0.00806861
vernier = 0.00403431
vernier = 0.00201715
Gmin = 5.31278e-011
vernier = 0.00268954
vernier = 0.00358605
Gmin = 5.27247e-011
vernier = 0.0047814
vernier = 0.00637519
Gmin = 5.20882e-011
vernier = 0.00850026
vernier = 0.00425013
vernier = 0.00212506
Gmin = 5.1675e-011
vernier = 0.00283342
vernier = 0.00377789
Gmin = 5.13044e-011
vernier = 0.00503719
Gmin = 5.07265e-011
vernier = 0.00671625
vernier = 0.00895499
vernier = 0.0044775
vernier = 0.00223875
Gmin = 5.01904e-011
vernier = 0.002985
Gmin = 4.98545e-011
vernier = 0.00397999
vernier = 0.00530666
Gmin = 4.92958e-011
vernier = 0.00707554
vernier = 0.00353777
vernier = 0.00176889
Gmin = 4.90567e-011
vernier = 0.00235851
vernier = 0.00314468
Gmin = 4.87301e-011
vernier = 0.00419291
vernier = 0.00559055
Gmin = 4.82138e-011
vernier = 0.00745406
vernier = 0.00372703
vernier = 0.00186351
Gmin = 4.78783e-011
vernier = 0.00248469
vernier = 0.00331291
Gmin = 4.75769e-011
vernier = 0.00441722
Gmin = 4.71067e-011
vernier = 0.00588962
vernier = 0.00785283
vernier = 0.00392641
vernier = 0.00196321
Gmin = 4.66697e-011
vernier = 0.00261761
Gmin = 4.63958e-011
vernier = 0.00349014
vernier = 0.00465352
Gmin = 4.59395e-011
vernier = 0.0062047
vernier = 0.00310235
vernier = 0.00155117
Gmin = 4.5744e-011
vernier = 0.00206823
vernier = 0.00275764
Gmin = 4.54768e-011
vernier = 0.00367685
vernier = 0.00490247
Gmin = 4.5054e-011
vernier = 0.00653663
vernier = 0.00326831
vernier = 0.00163416
Gmin = 4.47789e-011
vernier = 0.00217887
vernier = 0.00290517
Gmin = 4.45316e-011
vernier = 0.00387355
Gmin = 4.41454e-011
vernier = 0.00516474
vernier = 0.00688631
vernier = 0.00344316
vernier = 0.00172158
Gmin = 4.37861e-011
vernier = 0.00229544
Gmin = 4.35606e-011
vernier = 0.00306058
vernier = 0.00408078
Gmin = 4.31846e-011
vernier = 0.00544103
vernier = 0.00725471
vernier = 0.00362735
Gmin = 4.27466e-011
vernier = 0.00181368
vernier = 0.00241824
Gmin = 4.25468e-011
vernier = 0.00322431
vernier = 0.00429908
Gmin = 4.21997e-011
vernier = 0.00573211
vernier = 0.00286605
vernier = 0.00143303
Gmin = 4.19737e-011
vernier = 0.0019107
vernier = 0.0025476
Gmin = 4.17704e-011
vernier = 0.0033968
Gmin = 4.14525e-011
vernier = 0.00452907
vernier = 0.00603876
vernier = 0.00301938
vernier = 0.00150969
Gmin = 4.11564e-011
vernier = 0.00201292
Gmin = 4.09705e-011
vernier = 0.00268389
vernier = 0.00357852
Gmin = 4.06602e-011
vernier = 0.00477136
vernier = 0.00636181
vernier = 0.00318091
Gmin = 4.02983e-011
vernier = 0.00159045
vernier = 0.0021206
Gmin = 4.01331e-011
vernier = 0.00282747
vernier = 0.00376996
Gmin = 3.98458e-011
vernier = 0.00502661
Gmin = 3.9398e-011
vernier = 0.00670215
vernier = 0.00335107
vernier = 0.00167554
vernier = 0.00223405
Gmin = 3.92717e-011
vernier = 0.00297873
Gmin = 3.90095e-011
vernier = 0.00397164
vernier = 0.00529552
vernier = 0.00264776
vernier = 0.00132388
Gmin = 3.8765e-011
vernier = 0.00176517
Gmin = 3.86114e-011
vernier = 0.00235356
vernier = 0.00313808
Gmin = 3.83549e-011
vernier = 0.00418411
vernier = 0.00557881
vernier = 0.00278941
Gmin = 3.80553e-011
vernier = 0.0013947
vernier = 0.0018596
Gmin = 3.79185e-011
vernier = 0.00247947
vernier = 0.00330596
Gmin = 3.76803e-011
vernier = 0.00440794
Gmin = 3.73087e-011
vernier = 0.00587726
vernier = 0.00293863
vernier = 0.00146931
vernier = 0.00195909
Gmin = 3.72038e-011
vernier = 0.00261211
Gmin = 3.69858e-011
vernier = 0.00348282
vernier = 0.00464375
Gmin = 3.66228e-011
vernier = 0.00619167
vernier = 0.00309584
vernier = 0.00154792
Gmin = 3.64673e-011
vernier = 0.00206389
vernier = 0.00275185
Gmin = 3.62547e-011
vernier = 0.00366914
vernier = 0.00489218
Gmin = 3.59184e-011
vernier = 0.00244609
vernier = 0.00122304
vernier = 0.00163073
Gmin = 3.58343e-011
vernier = 0.0021743
Gmin = 3.56595e-011
vernier = 0.00289907
vernier = 0.00386542
Gmin = 3.53679e-011
vernier = 0.0051539
vernier = 0.00257695
vernier = 0.00128847
Gmin = 3.52428e-011
vernier = 0.00171796
vernier = 0.00229062
Gmin = 3.50717e-011
vernier = 0.00305416
vernier = 0.00407221
Gmin = 3.48006e-011
vernier = 0.00542961
vernier = 0.00271481
vernier = 0.0013574
Gmin = 3.4624e-011
vernier = 0.00180987
vernier = 0.00241316
Gmin = 3.44652e-011
vernier = 0.00321754
Gmin = 3.42166e-011
vernier = 0.00429006
vernier = 0.00572008
vernier = 0.00286004
vernier = 0.00143002
Gmin = 3.39851e-011
vernier = 0.00190669
Gmin = 3.38397e-011
vernier = 0.00254226
vernier = 0.00338967
Gmin = 3.35969e-011
vernier = 0.00451956
vernier = 0.00602608
vernier = 0.00301304
Gmin = 3.33135e-011
vernier = 0.00150652
vernier = 0.00200869
Gmin = 3.31842e-011
vernier = 0.00267826
vernier = 0.00357101
Gmin = 3.29591e-011
vernier = 0.00476134
vernier = 0.00238067
vernier = 0.00119034
Gmin = 3.28124e-011
vernier = 0.00158711
vernier = 0.00211615
Gmin = 3.26803e-011
vernier = 0.00282153
Gmin = 3.24736e-011
vernier = 0.00376205
vernier = 0.00501606
vernier = 0.00250803
vernier = 0.00125401
Gmin = 3.22808e-011
vernier = 0.00167202
Gmin = 3.21596e-011
vernier = 0.00222936
vernier = 0.00297248
Gmin = 3.19572e-011
vernier = 0.0039633
vernier = 0.0052844
vernier = 0.0026422
Gmin = 3.17207e-011
vernier = 0.0013211
vernier = 0.00176147
Gmin = 3.16126e-011
vernier = 0.00234862
vernier = 0.0031315
Gmin = 3.14245e-011
vernier = 0.00417533
Gmin = 3.11308e-011
vernier = 0.0055671
vernier = 0.00278355
vernier = 0.00139177
vernier = 0.0018557
Gmin = 3.10479e-011
vernier = 0.00247427
Gmin = 3.08756e-011
vernier = 0.00329902
vernier = 0.00439869
vernier = 0.00219935
vernier = 0.00109967
Gmin = 3.07148e-011
vernier = 0.00146623
Gmin = 3.06137e-011
vernier = 0.00195497
vernier = 0.00260663
Gmin = 3.04446e-011
vernier = 0.00347551
vernier = 0.00463401
vernier = 0.002317
Gmin = 3.0247e-011
vernier = 0.0011585
vernier = 0.00154467
Gmin = 3.01566e-011
vernier = 0.00205956
vernier = 0.00274608
Gmin = 2.99992e-011
vernier = 0.00366143
Gmin = 2.97532e-011
vernier = 0.00488191
vernier = 0.00244096
vernier = 0.00122048
vernier = 0.0016273
Gmin = 2.96836e-011
vernier = 0.00216974
Gmin = 2.95391e-011
vernier = 0.00289298
vernier = 0.00385731
Gmin = 2.92981e-011
vernier = 0.00514308
vernier = 0.00257154
vernier = 0.00128577
Gmin = 2.91947e-011
vernier = 0.00171436
vernier = 0.00228581
Gmin = 2.90533e-011
vernier = 0.00304775
vernier = 0.00406366
vernier = 0.00203183
Gmin = 2.88878e-011
vernier = 0.00101592
vernier = 0.00135455
Gmin = 2.88121e-011
vernier = 0.00180607
vernier = 0.00240809
Gmin = 2.86802e-011
vernier = 0.00321079
Gmin = 2.84738e-011
vernier = 0.00428105
vernier = 0.00214053
vernier = 0.00107026
vernier = 0.00142702
Gmin = 2.84154e-011
vernier = 0.00190269
Gmin = 2.82941e-011
vernier = 0.00253692
vernier = 0.00338256
Gmin = 2.80915e-011
vernier = 0.00451008
vernier = 0.00225504
vernier = 0.00112752
Gmin = 2.80046e-011
vernier = 0.00150336
vernier = 0.00200448
Gmin = 2.78856e-011
vernier = 0.00267264
vernier = 0.00356351
Gmin = 2.76968e-011
vernier = 0.00475135
vernier = 0.00237567
vernier = 0.00118784
Gmin = 2.75738e-011
vernier = 0.00158378
vernier = 0.00211171
Gmin = 2.7463e-011
vernier = 0.00281561
Gmin = 2.72897e-011
vernier = 0.00375415
vernier = 0.00500553
vernier = 0.00250276
vernier = 0.00125138
Gmin = 2.7128e-011
vernier = 0.00166851
Gmin = 2.70264e-011
vernier = 0.00222468
vernier = 0.00296624
Gmin = 2.68566e-011
vernier = 0.00395498
vernier = 0.00197749
vernier = 0.000988746
Gmin = 2.67837e-011
vernier = 0.00131833
vernier = 0.00175777
Gmin = 2.66839e-011
vernier = 0.00234369
vernier = 0.00312492
Gmin = 2.65254e-011
vernier = 0.00416656
vernier = 0.00208328
vernier = 0.00104164
Gmin = 2.64221e-011
vernier = 0.00138885
vernier = 0.0018518
Gmin = 2.6329e-011
vernier = 0.00246907
Gmin = 2.61832e-011
vernier = 0.00329209
vernier = 0.00438946
vernier = 0.00219473
vernier = 0.00109736
Gmin = 2.60471e-011
vernier = 0.00146315
Gmin = 2.59615e-011
vernier = 0.00195087
vernier = 0.00260116
Gmin = 2.58184e-011
vernier = 0.00346821
vernier = 0.00462428
vernier = 0.00231214
Gmin = 2.56511e-011
vernier = 0.00115607
vernier = 0.00154143
Gmin = 2.55747e-011
vernier = 0.00205523
vernier = 0.00274031
Gmin = 2.54415e-011
vernier = 0.00365375
vernier = 0.00182687
vernier = 0.000913437
Gmin = 2.53545e-011
vernier = 0.00121792
vernier = 0.00162389
Gmin = 2.52761e-011
vernier = 0.00216518
Gmin = 2.51533e-011
vernier = 0.00288691
vernier = 0.00384921
vernier = 0.00192461
vernier = 0.000962303
Gmin = 2.50386e-011
vernier = 0.00128307
Gmin = 2.49665e-011
vernier = 0.00171076
vernier = 0.00228101
Gmin = 2.48458e-011
vernier = 0.00304135
vernier = 0.00405513
vernier = 0.00202757
Gmin = 2.47046e-011
vernier = 0.00101378
vernier = 0.00135171
Gmin = 2.464e-011
vernier = 0.00180228
vernier = 0.00240304
Gmin = 2.45274e-011
vernier = 0.00320405
Gmin = 2.43512e-011
vernier = 0.00427207
vernier = 0.00213603
vernier = 0.00106802
vernier = 0.00142402
Gmin = 2.43015e-011
vernier = 0.0018987
Gmin = 2.41979e-011
vernier = 0.00253159
vernier = 0.00337546
vernier = 0.00168773
vernier = 0.000843864
Gmin = 2.41011e-011
vernier = 0.00112515
Gmin = 2.40402e-011
vernier = 0.0015002
vernier = 0.00200027
Gmin = 2.39382e-011
vernier = 0.00266702
vernier = 0.00355603
vernier = 0.00177802
Gmin = 2.38189e-011
vernier = 0.000889008
vernier = 0.00118534
Gmin = 2.37642e-011
vernier = 0.00158046
vernier = 0.00210728
Gmin = 2.3669e-011
vernier = 0.0028097
Gmin = 2.35199e-011
vernier = 0.00374627
vernier = 0.00187313
vernier = 0.000936567
vernier = 0.00124876
Gmin = 2.34777e-011
vernier = 0.00166501
Gmin = 2.33899e-011
vernier = 0.00222001
vernier = 0.00296001
Gmin = 2.32433e-011
vernier = 0.00394668
vernier = 0.00197334
vernier = 0.00098667
Gmin = 2.31803e-011
vernier = 0.00131556
vernier = 0.00175408
Gmin = 2.30941e-011
vernier = 0.00233877
vernier = 0.00311836
Gmin = 2.29573e-011
vernier = 0.00415781
vernier = 0.00207891
vernier = 0.00103945
Gmin = 2.2868e-011
vernier = 0.00138594
vernier = 0.00184792
Gmin = 2.27876e-011
vernier = 0.00246389
Gmin = 2.26617e-011
vernier = 0.00328518
vernier = 0.00164259
vernier = 0.000821296
vernier = 0.00109506
Gmin = 2.2626e-011
vernier = 0.00146008
Gmin = 2.25518e-011
vernier = 0.00194677
vernier = 0.0025957
Gmin = 2.24278e-011
vernier = 0.00346093
vernier = 0.00173046
vernier = 0.000865232
Gmin = 2.23745e-011
vernier = 0.00115364
vernier = 0.00153819
Gmin = 2.23015e-011
vernier = 0.00205092
vernier = 0.00273456
Gmin = 2.21856e-011
vernier = 0.00364608
vernier = 0.00182304
vernier = 0.000911519
Gmin = 2.21099e-011
vernier = 0.00121536
vernier = 0.00162048
Gmin = 2.20417e-011
vernier = 0.00216064
Gmin = 2.19349e-011
vernier = 0.00288085
vernier = 0.00384113
vernier = 0.00192057
vernier = 0.000960283
Gmin = 2.18351e-011
vernier = 0.00128038
Gmin = 2.17723e-011
vernier = 0.00170717
vernier = 0.00227622
Gmin = 2.16672e-011
vernier = 0.00303496
vernier = 0.00404662
vernier = 0.00202331
Gmin = 2.15443e-011
vernier = 0.00101165
vernier = 0.00134887
Gmin = 2.14881e-011
vernier = 0.0017985
vernier = 0.00239799
Gmin = 2.13901e-011
vernier = 0.00319732
vernier = 0.00159866
vernier = 0.000799331
Gmin = 2.13261e-011
vernier = 0.00106577
vernier = 0.00142103
Gmin = 2.12684e-011
vernier = 0.00189471
Gmin = 2.1178e-011
vernier = 0.00252628
vernier = 0.00336837
vernier = 0.00168419
vernier = 0.000842093
Gmin = 2.10935e-011
vernier = 0.00112279
Gmin = 2.10403e-011
vernier = 0.00149705
vernier = 0.00199607
Gmin = 2.09512e-011
vernier = 0.00266143
vernier = 0.00354857
vernier = 0.00177428
Gmin = 2.0847e-011
vernier = 0.000887142
vernier = 0.00118286
Gmin = 2.07993e-011
vernier = 0.00157714
vernier = 0.00210285
Gmin = 2.07161e-011
vernier = 0.0028038
Gmin = 2.05858e-011
vernier = 0.0037384
vernier = 0.0018692
vernier = 0.000934601
vernier = 0.00124613
Gmin = 2.0549e-011
vernier = 0.00166151
Gmin = 2.04723e-011
vernier = 0.00221535
vernier = 0.0029538
vernier = 0.0014769
vernier = 0.000738449
Gmin = 2.03894e-011
vernier = 0.000984599
Gmin = 2.03455e-011
vernier = 0.0013128
vernier = 0.0017504
Gmin = 2.02739e-011
vernier = 0.00233386
vernier = 0.00311182
Gmin = 2.01608e-011
vernier = 0.00155591
vernier = 0.000777954
vernier = 0.00103727
Gmin = 2.01413e-011
vernier = 0.00138303
vernier = 0.00184404
Gmin = 2.00746e-011
vernier = 0.00245872
Gmin = 1.9967e-011
vernier = 0.00327829
vernier = 0.00163914
vernier = 0.000819572
vernier = 0.00109276
Gmin = 1.99288e-011
vernier = 0.00145702
Gmin = 1.98654e-011
vernier = 0.00194269
vernier = 0.00259025
Gmin = 1.9762e-011
vernier = 0.00345366
vernier = 0.00172683
vernier = 0.000863416
Gmin = 1.97067e-011
vernier = 0.00115122
vernier = 0.00153496
Gmin = 1.96458e-011
vernier = 0.00204661
vernier = 0.00272882
Gmin = 1.95497e-011
vernier = 0.00363842
vernier = 0.00181921
vernier = 0.000909606
Gmin = 1.94743e-011
vernier = 0.00121281
vernier = 0.00161708
Gmin = 1.94178e-011
vernier = 0.0021561
Gmin = 1.93265e-011
vernier = 0.0028748
vernier = 0.0014374
vernier = 0.0007187
vernier = 0.000958267
Gmin = 1.92941e-011
vernier = 0.00127769
Gmin = 1.92403e-011
vernier = 0.00170358
vernier = 0.00227145
Gmin = 1.91524e-011
vernier = 0.00302859
vernier = 0.0015143
vernier = 0.000757148
Gmin = 1.91053e-011
vernier = 0.00100953
vernier = 0.00134604
Gmin = 1.90536e-011
vernier = 0.00179472
vernier = 0.00239296
Gmin = 1.89718e-011
vernier = 0.00319061
vernier = 0.00159531
vernier = 0.000797653
Gmin = 1.89076e-011
vernier = 0.00106354
vernier = 0.00141805
Gmin = 1.88595e-011
vernier = 0.00189073
Gmin = 1.87817e-011
vernier = 0.00252098
vernier = 0.0033613
vernier = 0.00168065
vernier = 0.000840325
Gmin = 1.8702e-011
vernier = 0.00112043
Gmin = 1.86562e-011
vernier = 0.00149391
vernier = 0.00199188
Gmin = 1.85815e-011
vernier = 0.00265584
vernier = 0.00354112
Gmin = 1.84637e-011
vernier = 0.00177056
vernier = 0.00088528
vernier = 0.00118037
Gmin = 1.84432e-011
vernier = 0.00157383
vernier = 0.00209844
Gmin = 1.83738e-011
vernier = 0.00279792
vernier = 0.00139896
vernier = 0.000699479
Gmin = 1.83193e-011
vernier = 0.000932639
vernier = 0.00124352
Gmin = 1.82784e-011
vernier = 0.00165802
Gmin = 1.82123e-011
vernier = 0.0022107
vernier = 0.0029476
vernier = 0.0014738
vernier = 0.000736899
Gmin = 1.81445e-011
vernier = 0.000982532
Gmin = 1.81055e-011
vernier = 0.00131004
vernier = 0.00174672
Gmin = 1.80419e-011
vernier = 0.00232896
vernier = 0.00310528
Gmin = 1.79415e-011
vernier = 0.00155264
vernier = 0.000776321
vernier = 0.00103509
Gmin = 1.79241e-011
vernier = 0.00138013
vernier = 0.00184017
Gmin = 1.7865e-011
vernier = 0.00245355
Gmin = 1.77694e-011
vernier = 0.00327141
vernier = 0.0016357
vernier = 0.000817851
vernier = 0.00109047
Gmin = 1.77355e-011
vernier = 0.00145396
Gmin = 1.76792e-011
vernier = 0.00193861
vernier = 0.00258481
Gmin = 1.75874e-011
vernier = 0.00129241
vernier = 0.000646203
vernier = 0.000861604
Gmin = 1.75732e-011
vernier = 0.0011488
vernier = 0.00153174
Gmin = 1.75249e-011
vernier = 0.00204232
Gmin = 1.74468e-011
vernier = 0.00272309
vernier = 0.00136155
vernier = 0.000680773
vernier = 0.000907697
Gmin = 1.74191e-011
vernier = 0.00121026
Gmin = 1.7373e-011
vernier = 0.00161368
vernier = 0.00215158
Gmin = 1.72979e-011
vernier = 0.00286877
vernier = 0.00143438
vernier = 0.000717192
Gmin = 1.72576e-011
vernier = 0.000956255
vernier = 0.00127501
Gmin = 1.72133e-011
vernier = 0.00170001
vernier = 0.00226668
Gmin = 1.71434e-011
vernier = 0.00302224
vernier = 0.00151112
vernier = 0.000755559
Gmin = 1.70884e-011
vernier = 0.00100741
vernier = 0.00134322
Gmin = 1.70472e-011
vernier = 0.00179095
Gmin = 1.69806e-011
vernier = 0.00238794
vernier = 0.00318392
vernier = 0.00159196
vernier = 0.000795979
Gmin = 1.69123e-011
vernier = 0.0010613
Gmin = 1.68731e-011
vernier = 0.00141507
vernier = 0.00188676
Gmin = 1.68091e-011
vernier = 0.00251568
vernier = 0.00125784
vernier = 0.000628921
Gmin = 1.67747e-011
vernier = 0.000838561
vernier = 0.00111808
Gmin = 1.6737e-011
vernier = 0.00149077
vernier = 0.0019877
Gmin = 1.66773e-011
vernier = 0.00265026
vernier = 0.00132513
vernier = 0.000662566
Gmin = 1.66304e-011
vernier = 0.000883421
vernier = 0.00117789
Gmin = 1.65953e-011
vernier = 0.00157053
Gmin = 1.65384e-011
vernier = 0.00209403
vernier = 0.00279204
vernier = 0.00139602
vernier = 0.000698011
Gmin = 1.64801e-011
vernier = 0.000930681
Gmin = 1.64465e-011
vernier = 0.00124091
vernier = 0.00165454
Gmin = 1.63918e-011
vernier = 0.00220606
vernier = 0.00294141
Gmin = 1.63054e-011
vernier = 0.0014707
vernier = 0.000735352
vernier = 0.00098047
Gmin = 1.62904e-011
vernier = 0.00130729
vernier = 0.00174306
Gmin = 1.62395e-011
vernier = 0.00232407
Gmin = 1.61572e-011
vernier = 0.00309876
vernier = 0.00154938
vernier = 0.000774691
vernier = 0.00103292
Gmin = 1.6128e-011
vernier = 0.00137723
Gmin = 1.60795e-011
vernier = 0.0018363
vernier = 0.0024484
vernier = 0.0012242
vernier = 0.000612101
Gmin = 1.60297e-011
vernier = 0.000816135
Gmin = 1.60012e-011
vernier = 0.00108818
vernier = 0.00145091
Gmin = 1.59544e-011
vernier = 0.00193454
vernier = 0.00257939
Gmin = 1.58807e-011
vernier = 0.00128969
vernier = 0.000644846
vernier = 0.000859795
Gmin = 1.58679e-011
vernier = 0.00114639
vernier = 0.00152852
Gmin = 1.58244e-011
vernier = 0.00203803
Gmin = 1.5754e-011
vernier = 0.00271737
vernier = 0.00135869
vernier = 0.000679344
vernier = 0.000905791
Gmin = 1.5729e-011
vernier = 0.00120772
Gmin = 1.56875e-011
vernier = 0.00161029
vernier = 0.00214706
Gmin = 1.56198e-011
vernier = 0.00286274
vernier = 0.00143137
vernier = 0.000715686
Gmin = 1.55835e-011
vernier = 0.000954248
vernier = 0.00127233
Gmin = 1.55436e-011
vernier = 0.00169644
vernier = 0.00226192
Gmin = 1.54806e-011
vernier = 0.00113096
vernier = 0.00056548
Gmin = 1.54522e-011
vernier = 0.000753973
vernier = 0.0010053
Gmin = 1.54192e-011
vernier = 0.0013404
vernier = 0.00178719
Gmin = 1.53668e-011
vernier = 0.00238292
vernier = 0.00119146
vernier = 0.000595731
Gmin = 1.53325e-011
vernier = 0.000794308
vernier = 0.00105908
Gmin = 1.53016e-011
vernier = 0.0014121
Gmin = 1.5253e-011
vernier = 0.0018828
vernier = 0.0025104
vernier = 0.0012552
vernier = 0.000627601
Gmin = 1.52076e-011
vernier = 0.000836801
Gmin = 1.5179e-011
vernier = 0.00111573
vernier = 0.00148765
Gmin = 1.51311e-011
vernier = 0.00198353
vernier = 0.0026447
vernier = 0.00132235
Gmin = 1.5075e-011
vernier = 0.000661175
vernier = 0.000881567
Gmin = 1.50493e-011
vernier = 0.00117542
vernier = 0.00156723
Gmin = 1.50044e-011
vernier = 0.00208964
Gmin = 1.4934e-011
vernier = 0.00278618
vernier = 0.00139309
vernier = 0.000696546
vernier = 0.000928728
Gmin = 1.49141e-011
vernier = 0.0012383
Gmin = 1.48726e-011
vernier = 0.00165107
vernier = 0.00220143
Gmin = 1.48032e-011
vernier = 0.00110071
vernier = 0.000550357
vernier = 0.000733809
Gmin = 1.47876e-011
vernier = 0.000978411
Gmin = 1.47551e-011
vernier = 0.00130455
vernier = 0.0017394
Gmin = 1.47007e-011
vernier = 0.0023192
vernier = 0.0011596
vernier = 0.000579799
Gmin = 1.46772e-011
vernier = 0.000773065
vernier = 0.00103075
Gmin = 1.46451e-011
vernier = 0.00137434
vernier = 0.00183245
Gmin = 1.45941e-011
vernier = 0.00244326
vernier = 0.00122163
vernier = 0.000610816
Gmin = 1.45607e-011
vernier = 0.000814421
vernier = 0.00108589
Gmin = 1.45306e-011
vernier = 0.00144786
Gmin = 1.44833e-011
vernier = 0.00193048
vernier = 0.00257397
vernier = 0.00128699
vernier = 0.000643493
Gmin = 1.44391e-011
vernier = 0.00085799
Gmin = 1.44113e-011
vernier = 0.00114399
vernier = 0.00152532
Gmin = 1.43647e-011
vernier = 0.00203375
vernier = 0.00271167
vernier = 0.00135583
Gmin = 1.431e-011
vernier = 0.000677917
vernier = 0.00090389
Gmin = 1.4285e-011
vernier = 0.00120519
vernier = 0.00160691
Gmin = 1.42413e-011
vernier = 0.00214255
vernier = 0.00107128
vernier = 0.000535638
Gmin = 1.42013e-011
vernier = 0.000714184
Gmin = 1.41785e-011
vernier = 0.000952245
vernier = 0.00126966
Gmin = 1.41403e-011
vernier = 0.00169288
vernier = 0.00225717
vernier = 0.00112859
Gmin = 1.40955e-011
vernier = 0.000564293
vernier = 0.00075239
Gmin = 1.4075e-011
vernier = 0.00100319
vernier = 0.00133758
Gmin = 1.40391e-011
vernier = 0.00178344
Gmin = 1.39829e-011
vernier = 0.00237792
vernier = 0.00118896
vernier = 0.000594481
vernier = 0.000792641
Gmin = 1.3967e-011
vernier = 0.00105685
Gmin = 1.39338e-011
vernier = 0.00140914
vernier = 0.00187885
Gmin = 1.38783e-011
vernier = 0.00250513
vernier = 0.00125257
vernier = 0.000626283
Gmin = 1.38544e-011
vernier = 0.000835044
vernier = 0.00111339
Gmin = 1.38217e-011
vernier = 0.00148452
vernier = 0.00197936
Gmin = 1.37697e-011
vernier = 0.00263915
vernier = 0.00131957
vernier = 0.000659787
Gmin = 1.37356e-011
vernier = 0.000879716
vernier = 0.00117295
Gmin = 1.3705e-011
vernier = 0.00156394
Gmin = 1.36568e-011
vernier = 0.00208525
vernier = 0.00104263
vernier = 0.000521313
vernier = 0.000695084
Gmin = 1.36432e-011
vernier = 0.000926778
Gmin = 1.36148e-011
vernier = 0.0012357
vernier = 0.0016476
Gmin = 1.35672e-011
vernier = 0.00219681
vernier = 0.0010984
vernier = 0.000549201
Gmin = 1.35467e-011
vernier = 0.000732268
vernier = 0.000976358
Gmin = 1.35187e-011
vernier = 0.00130181
vernier = 0.00173575
Gmin = 1.3474e-011
vernier = 0.00231433
vernier = 0.00115716
vernier = 0.000578582
Gmin = 1.34448e-011
vernier = 0.000771442
vernier = 0.00102859
Gmin = 1.34185e-011
vernier = 0.00137145
Gmin = 1.33771e-011
vernier = 0.0018286
vernier = 0.00243814
vernier = 0.00121907
vernier = 0.000609534
Gmin = 1.33385e-011
vernier = 0.000812712
Gmin = 1.33141e-011
vernier = 0.00108362
vernier = 0.00144482
Gmin = 1.32733e-011
vernier = 0.00192643
vernier = 0.00256857
vernier = 0.00128428
Gmin = 1.32255e-011
vernier = 0.000642142
vernier = 0.000856189
Gmin = 1.32035e-011
vernier = 0.00114159
vernier = 0.00152211
Gmin = 1.31653e-011
vernier = 0.00202948
vernier = 0.00101474
vernier = 0.000507371
Gmin = 1.31403e-011
vernier = 0.000676494
vernier = 0.000901992
Gmin = 1.31177e-011
vernier = 0.00120266
Gmin = 1.30823e-011
vernier = 0.00160354
vernier = 0.00213805
vernier = 0.00106903
vernier = 0.000534514
Gmin = 1.30491e-011
vernier = 0.000712685
Gmin = 1.30282e-011
vernier = 0.000950246
vernier = 0.00126699
Gmin = 1.29932e-011
vernier = 0.00168933
vernier = 0.00225243
vernier = 0.00112622
Gmin = 1.29521e-011
vernier = 0.000563108
vernier = 0.000750811
Gmin = 1.29332e-011
vernier = 0.00100108
vernier = 0.00133477
Gmin = 1.29004e-011
vernier = 0.0017797
Gmin = 1.28488e-011
vernier = 0.00237293
vernier = 0.00118647
vernier = 0.000593233
vernier = 0.000790977
Gmin = 1.28342e-011
vernier = 0.00105464
Gmin = 1.28038e-011
vernier = 0.00140618
vernier = 0.00187491
Gmin = 1.27529e-011
vernier = 0.00249987
vernier = 0.00124994
vernier = 0.000624969
Gmin = 1.2731e-011
vernier = 0.000833291
vernier = 0.00111105
Gmin = 1.2701e-011
vernier = 0.00148141
vernier = 0.00197521
vernier = 0.000987604
Gmin = 1.26658e-011
vernier = 0.000493802
vernier = 0.000658402
Gmin = 1.26496e-011
vernier = 0.00087787
vernier = 0.00117049
Gmin = 1.26215e-011
vernier = 0.00156066
Gmin = 1.25772e-011
vernier = 0.00208087
vernier = 0.00104044
vernier = 0.000520219
vernier = 0.000693625
Gmin = 1.25647e-011
vernier = 0.000924833
Gmin = 1.25386e-011
vernier = 0.00123311
vernier = 0.00164415
Gmin = 1.24948e-011
vernier = 0.00219219
vernier = 0.0010961
vernier = 0.000548049
Gmin = 1.2476e-011
vernier = 0.000730731
vernier = 0.000974308
Gmin = 1.24502e-011
vernier = 0.00129908
vernier = 0.0017321
Gmin = 1.24092e-011
vernier = 0.00230947
vernier = 0.00115473
vernier = 0.000577367
Gmin = 1.23824e-011
vernier = 0.000769823
vernier = 0.00102643
Gmin = 1.23582e-011
vernier = 0.00136857
Gmin = 1.23202e-011
vernier = 0.00182476
vernier = 0.00243302
vernier = 0.00121651
vernier = 0.000608254
Gmin = 1.22846e-011
vernier = 0.000811006
Gmin = 1.22622e-011
vernier = 0.00108134
vernier = 0.00144179
Gmin = 1.22247e-011
vernier = 0.00192238
vernier = 0.000961191
vernier = 0.000480596
Gmin = 1.22086e-011
vernier = 0.000640794
vernier = 0.000854392
Gmin = 1.21864e-011
vernier = 0.00113919
vernier = 0.00151892
Gmin = 1.21512e-011
vernier = 0.00202522
vernier = 0.00101261
vernier = 0.000506306
Gmin = 1.21282e-011
vernier = 0.000675074
vernier = 0.000900099
Gmin = 1.21074e-011
vernier = 0.00120013
Gmin = 1.20747e-011
vernier = 0.00160018
vernier = 0.00213357
vernier = 0.00106678
vernier = 0.000533392
Gmin = 1.20442e-011
vernier = 0.000711189
Gmin = 1.20249e-011
vernier = 0.000948251
vernier = 0.00126433
Gmin = 1.19927e-011
vernier = 0.00168578
vernier = 0.0022477
vernier = 0.00112385
Gmin = 1.19548e-011
vernier = 0.000561926
vernier = 0.000749235
Gmin = 1.19375e-011
vernier = 0.000998979
vernier = 0.00133197
Gmin = 1.19072e-011
vernier = 0.00177596
Gmin = 1.18598e-011
vernier = 0.00236795
vernier = 0.00118397
vernier = 0.000591987
vernier = 0.000789316
Gmin = 1.18463e-011
vernier = 0.00105242
Gmin = 1.18183e-011
vernier = 0.00140323
vernier = 0.00187097
vernier = 0.000935485
vernier = 0.000467743
Gmin = 1.17921e-011
vernier = 0.000623657
Gmin = 1.17755e-011
vernier = 0.000831542
vernier = 0.00110872
Gmin = 1.17478e-011
vernier = 0.0014783
vernier = 0.00197106
vernier = 0.000985531
Gmin = 1.17153e-011
vernier = 0.000492765
vernier = 0.00065702
Gmin = 1.17004e-011
vernier = 0.000876027
vernier = 0.00116804
Gmin = 1.16744e-011
vernier = 0.00155738
Gmin = 1.16336e-011
vernier = 0.00207651
vernier = 0.00103825
vernier = 0.000519127
vernier = 0.000692169
Gmin = 1.1622e-011
vernier = 0.000922891
Gmin = 1.15979e-011
vernier = 0.00123052
vernier = 0.00164069
Gmin = 1.15575e-011
vernier = 0.00218759
vernier = 0.0010938
vernier = 0.000546898
Gmin = 1.15402e-011
vernier = 0.000729197
vernier = 0.000972263
Gmin = 1.15163e-011
vernier = 0.00129635
vernier = 0.00172847
Gmin = 1.14785e-011
vernier = 0.000864233
vernier = 0.000432117
Gmin = 1.14624e-011
vernier = 0.000576155
vernier = 0.000768207
Gmin = 1.14437e-011
vernier = 0.00102428
vernier = 0.0013657
Gmin = 1.14139e-011
vernier = 0.00182093
vernier = 0.000910467
vernier = 0.000455233
Gmin = 1.13945e-011
vernier = 0.000606978
vernier = 0.000809303
Gmin = 1.13769e-011
vernier = 0.00107907
Gmin = 1.13493e-011
vernier = 0.00143876
vernier = 0.00191835
vernier = 0.000959174
vernier = 0.000479587
Gmin = 1.13235e-011
vernier = 0.000639449
Gmin = 1.13072e-011
vernier = 0.000852598
vernier = 0.0011368
Gmin = 1.12799e-011
vernier = 0.00151573
vernier = 0.00202097
vernier = 0.00101049
Gmin = 1.12479e-011
vernier = 0.000505243
vernier = 0.000673657
Gmin = 1.12332e-011
vernier = 0.000898209
vernier = 0.00119761
Gmin = 1.12076e-011
vernier = 0.00159682
Gmin = 1.11674e-011
vernier = 0.00212909
vernier = 0.00106454
vernier = 0.000532272
vernier = 0.000709696
Gmin = 1.11561e-011
vernier = 0.000946261
Gmin = 1.11323e-011
vernier = 0.00126168
vernier = 0.00168224
Gmin = 1.10926e-011
vernier = 0.00224299
vernier = 0.00112149
vernier = 0.000560747
Gmin = 1.10755e-011
vernier = 0.000747662
vernier = 0.000996882
Gmin = 1.10521e-011
vernier = 0.00132918
vernier = 0.00177223
vernier = 0.000886117
Gmin = 1.10246e-011
vernier = 0.000443059
vernier = 0.000590745
Gmin = 1.1012e-011
vernier = 0.000787659
vernier = 0.00105021
Gmin = 1.099e-011
vernier = 0.00140028
Gmin = 1.09554e-011
vernier = 0.00186704
vernier = 0.000933521
vernier = 0.000466761
vernier = 0.000622348
Gmin = 1.09456e-011
vernier = 0.000829796
Gmin = 1.09252e-011
vernier = 0.0011064
vernier = 0.00147519
Gmin = 1.0891e-011
vernier = 0.00196692
vernier = 0.000983462
vernier = 0.000491731
Gmin = 1.08763e-011
vernier = 0.000655641
vernier = 0.000874188
Gmin = 1.08561e-011
vernier = 0.00116558
vernier = 0.00155411
Gmin = 1.0824e-011
vernier = 0.00207215
vernier = 0.00103607
vernier = 0.000518037
Gmin = 1.0803e-011
vernier = 0.000690716
vernier = 0.000920954
Gmin = 1.0784e-011
vernier = 0.00122794
Gmin = 1.07543e-011
vernier = 0.00163725
vernier = 0.002183
vernier = 0.0010915
vernier = 0.00054575
Gmin = 1.07265e-011
vernier = 0.000727667
Gmin = 1.07089e-011
vernier = 0.000970222
vernier = 0.00129363
Gmin = 1.06795e-011
vernier = 0.00172484
vernier = 0.000862419
vernier = 0.000431209
Gmin = 1.06669e-011
vernier = 0.000574946
vernier = 0.000766594
Gmin = 1.06495e-011
vernier = 0.00102213
vernier = 0.00136283
Gmin = 1.06219e-011
vernier = 0.00181711
vernier = 0.000908555
vernier = 0.000454278
Gmin = 1.06038e-011
vernier = 0.000605703
vernier = 0.000807604
Gmin = 1.05875e-011
vernier = 0.00107681
Gmin = 1.05619e-011
vernier = 0.00143574
vernier = 0.00191432
vernier = 0.00095716
vernier = 0.00047858
Gmin = 1.05379e-011
vernier = 0.000638107
Gmin = 1.05228e-011
vernier = 0.000850809
vernier = 0.00113441
Gmin = 1.04974e-011
vernier = 0.00151255
vernier = 0.00201673
vernier = 0.00100836
Gmin = 1.04677e-011
vernier = 0.000504182
vernier = 0.000672243
Gmin = 1.04541e-011
vernier = 0.000896324
vernier = 0.0011951
Gmin = 1.04303e-011
vernier = 0.00159346
Gmin = 1.0393e-011
vernier = 0.00212462
vernier = 0.00106231
vernier = 0.000531155
vernier = 0.000708206
Gmin = 1.03824e-011
vernier = 0.000944274
Gmin = 1.03604e-011
vernier = 0.00125903
vernier = 0.00167871
vernier = 0.000839354
vernier = 0.000419677
Gmin = 1.03397e-011
vernier = 0.00055957
Gmin = 1.03267e-011
vernier = 0.000746092
vernier = 0.00099479
Gmin = 1.03049e-011
vernier = 0.00132639
vernier = 0.00176851
vernier = 0.000884257
Gmin = 1.02793e-011
vernier = 0.000442129
vernier = 0.000589505
Gmin = 1.02676e-011
vernier = 0.000786006
vernier = 0.00104801
Gmin = 1.02471e-011
vernier = 0.00139734
Gmin = 1.0215e-011
vernier = 0.00186312
vernier = 0.000931562
vernier = 0.000465781
vernier = 0.000621041
Gmin = 1.02058e-011
vernier = 0.000828055
Gmin = 1.01868e-011
vernier = 0.00110407
vernier = 0.0014721
Gmin = 1.0155e-011
vernier = 0.00196279
vernier = 0.000981397
vernier = 0.000490699
Gmin = 1.01413e-011
vernier = 0.000654265
vernier = 0.000872353
Gmin = 1.01226e-011
vernier = 0.00116314
vernier = 0.00155085
Gmin = 1.00927e-011
vernier = 0.0020678
vernier = 0.0010339
vernier = 0.000516949
Gmin = 1.00731e-011
vernier = 0.000689266
vernier = 0.000919021
Gmin = 1.00555e-011
vernier = 0.00122536
Gmin = 1.00278e-011
vernier = 0.00163381
vernier = 0.000816907
vernier = 0.000408453
vernier = 0.000544604
Gmin = 1.00173e-011
vernier = 0.000726139
Gmin = 1.00014e-011
vernier = 0.000968185
vernier = 0.00129091
Gmin = 9.97537e-012
vernier = 0.00172122
vernier = 0.000860609
vernier = 0.000430304
Gmin = 9.96143e-012
vernier = 0.000573739
vernier = 0.000764985
Gmin = 9.94608e-012
vernier = 0.00101998
vernier = 0.00135997
Gmin = 9.92181e-012
vernier = 0.0018133
vernier = 0.000906648
vernier = 0.000453324
Gmin = 9.90272e-012
vernier = 0.000604432
vernier = 0.000805909
Gmin = 9.88839e-012
vernier = 0.00107455
Gmin = 9.86517e-012
vernier = 0.00143273
vernier = 0.0019103
vernier = 0.000955151
vernier = 0.000477575
Gmin = 9.84136e-012
vernier = 0.000636767
Gmin = 9.82766e-012
vernier = 0.000849023
vernier = 0.00113203
Gmin = 9.80526e-012
vernier = 0.00150937
vernier = 0.0020125
Gmin = 9.76987e-012
vernier = 0.00100625
vernier = 0.000503124
vernier = 0.000670832
Gmin = 9.76373e-012
vernier = 0.000894442
vernier = 0.00119259
Gmin = 9.74283e-012
vernier = 0.00159012
vernier = 0.00079506
vernier = 0.000596295
Gmin = 9.72059e-012
vernier = 0.000795059
Gmin = 9.7037e-012
vernier = 0.00106008
vernier = 0.00141344
Gmin = 9.6761e-012
vernier = 0.00188458
vernier = 0.000942292
vernier = 0.000471146
Gmin = 9.6613e-012
vernier = 0.000628194
vernier = 0.000837592
Gmin = 9.645e-012
vernier = 0.00111679
vernier = 0.00148905
Gmin = 9.61923e-012
vernier = 0.0019854
vernier = 0.000992701
vernier = 0.000496351
Gmin = 9.59897e-012
vernier = 0.000661801
vernier = 0.000882401
Gmin = 9.58376e-012
vernier = 0.00117653
Gmin = 9.55913e-012
vernier = 0.00156871
vernier = 0.000784356
vernier = 0.000588267
vernier = 0.000784356
Gmin = 9.54742e-012
vernier = 0.00104581
Gmin = 9.52561e-012
vernier = 0.00139441
vernier = 0.00185921
vernier = 0.000929606
vernier = 0.000464803
Gmin = 9.50322e-012
vernier = 0.000619737
Gmin = 9.49035e-012
vernier = 0.000826316
vernier = 0.00110175
Gmin = 9.4693e-012
vernier = 0.00146901
vernier = 0.00195867
Gmin = 9.43604e-012
vernier = 0.000979337
vernier = 0.000489668
vernier = 0.000652891
Gmin = 9.43026e-012
vernier = 0.000870521
vernier = 0.00116069
Gmin = 9.41062e-012
vernier = 0.00154759
vernier = 0.000773796
vernier = 0.000580347
Gmin = 9.39198e-012
vernier = 0.000773796
Gmin = 9.37564e-012
vernier = 0.00103173
vernier = 0.00137564
Gmin = 9.34828e-012
vernier = 0.00183418
vernier = 0.000917091
vernier = 0.000458545
Gmin = 9.3365e-012
vernier = 0.000611394
vernier = 0.000815191
Gmin = 9.32034e-012
vernier = 0.00108692
vernier = 0.00144923
vernier = 0.000724614
Gmin = 9.30137e-012
vernier = 0.000543461
vernier = 0.000724614
Gmin = 9.28832e-012
vernier = 0.000966152
vernier = 0.0012882
Gmin = 9.26554e-012
vernier = 0.0017176
vernier = 0.000858801
vernier = 0.000429401
Gmin = 9.25064e-012
vernier = 0.000572534
vernier = 0.000763378
Gmin = 9.23719e-012
vernier = 0.00101784
Gmin = 9.21606e-012
vernier = 0.00135712
vernier = 0.00180949
vernier = 0.000904744
vernier = 0.000452372
Gmin = 9.19628e-012
vernier = 0.000603163
Gmin = 9.18381e-012
vernier = 0.000804217
vernier = 0.00107229
Gmin = 9.16291e-012
vernier = 0.00142972
vernier = 0.00190629
vernier = 0.000953145
Gmin = 9.13838e-012
vernier = 0.00127086
Gmin = 9.11302e-012
vernier = 0.00169448
vernier = 0.000847239
vernier = 0.00042362
vernier = 0.000564826
Gmin = 9.10402e-012
vernier = 0.000753101
Gmin = 9.08903e-012
vernier = 0.00100413
vernier = 0.00133885
Gmin = 9.06454e-012
vernier = 0.00178513
vernier = 0.000892564
vernier = 0.000446282
Gmin = 9.0514e-012
vernier = 0.000595042
vernier = 0.00079339
Gmin = 9.03694e-012
vernier = 0.00105785
vernier = 0.00141047
Gmin = 9.01407e-012
vernier = 0.000705235
vernier = 0.000528926
vernier = 0.000705235
Gmin = 9.00494e-012
vernier = 0.000940313
Gmin = 8.98591e-012
vernier = 0.00125375
vernier = 0.00167167
vernier = 0.000835833
vernier = 0.000417917
Gmin = 8.96809e-012
vernier = 0.000557222
Gmin = 8.95685e-012
vernier = 0.000742962
vernier = 0.000990616
Gmin = 8.93802e-012
vernier = 0.00132082
vernier = 0.00176109
vernier = 0.000880547
Gmin = 8.91592e-012
vernier = 0.000440274
vernier = 0.000587031
Gmin = 8.90578e-012
vernier = 0.000782708
vernier = 0.00104361
Gmin = 8.88808e-012
vernier = 0.00139148
Gmin = 8.86031e-012
vernier = 0.00185531
vernier = 0.000927654
vernier = 0.000463827
vernier = 0.000618436
Gmin = 8.85243e-012
vernier = 0.000824581
Gmin = 8.83603e-012
vernier = 0.00109944
vernier = 0.00146592
vernier = 0.00073296
vernier = 0.00054972
Gmin = 8.81824e-012
vernier = 0.00073296
Gmin = 8.80411e-012
vernier = 0.00097728
vernier = 0.00130304
Gmin = 8.78102e-012
vernier = 0.00173739
vernier = 0.000868693
vernier = 0.000434346
Gmin = 8.76863e-012
vernier = 0.000579128
vernier = 0.000772171
Gmin = 8.755e-012
vernier = 0.00102956
vernier = 0.00137275
Gmin = 8.73343e-012
vernier = 0.00183033
vernier = 0.000915165
vernier = 0.000457582
Gmin = 8.71647e-012
vernier = 0.00061011
vernier = 0.00081348
Gmin = 8.70374e-012
vernier = 0.00108464
Gmin = 8.68311e-012
vernier = 0.00144619
vernier = 0.000723093
vernier = 0.000542319
vernier = 0.000723092
Gmin = 8.67331e-012
vernier = 0.000964123
Gmin = 8.65504e-012
vernier = 0.0012855
vernier = 0.001714
vernier = 0.000856998
vernier = 0.000428499
Gmin = 8.63629e-012
vernier = 0.000571332
Gmin = 8.6255e-012
vernier = 0.000761775
vernier = 0.0010157
Gmin = 8.60786e-012
vernier = 0.00135427
vernier = 0.00180569
Gmin = 8.57998e-012
vernier = 0.000902844
vernier = 0.000451422
vernier = 0.000601896
Gmin = 8.57514e-012
vernier = 0.000802528
vernier = 0.00107004
Gmin = 8.55867e-012
vernier = 0.00142672
vernier = 0.000713358
vernier = 0.000535018
Gmin = 8.54114e-012
vernier = 0.000713358
Gmin = 8.52782e-012
vernier = 0.000951143
vernier = 0.00126819
Gmin = 8.50605e-012
vernier = 0.00169092
vernier = 0.00084546
vernier = 0.00042273
Gmin = 8.49438e-012
vernier = 0.00056364
vernier = 0.00075152
Gmin = 8.48152e-012
vernier = 0.00100203
vernier = 0.00133603
Gmin = 8.46119e-012
vernier = 0.00178138
vernier = 0.000890689
vernier = 0.000445345
Gmin = 8.44519e-012
vernier = 0.000593793
vernier = 0.000791723
Gmin = 8.43318e-012
vernier = 0.00105563
Gmin = 8.41374e-012
vernier = 0.00140751
vernier = 0.000703754
vernier = 0.000527815
Gmin = 8.40301e-012
vernier = 0.000703754
vernier = 0.000938338
Gmin = 8.38627e-012
vernier = 0.00125112
vernier = 0.00166816
vernier = 0.000834078
Gmin = 8.36663e-012
vernier = 0.000417039
vernier = 0.000556052
Gmin = 8.35762e-012
vernier = 0.000741402
vernier = 0.000988536
Gmin = 8.34189e-012
vernier = 0.00131805
vernier = 0.000659024
vernier = 0.000494268
Gmin = 8.32713e-012
vernier = 0.000659024
Gmin = 8.31479e-012
vernier = 0.000878698
vernier = 0.0011716
Gmin = 8.29412e-012
vernier = 0.00156213
vernier = 0.000781064
vernier = 0.000585798
Gmin = 8.28319e-012
vernier = 0.000781064
vernier = 0.00104142
Gmin = 8.26488e-012
vernier = 0.00138856
vernier = 0.000694279
vernier = 0.000520709
Gmin = 8.25521e-012
vernier = 0.000694279
vernier = 0.000925705
Gmin = 8.23899e-012
vernier = 0.00123427
vernier = 0.0016457
vernier = 0.000822848
Gmin = 8.21994e-012
vernier = 0.000411424
vernier = 0.000548565
Gmin = 8.21121e-012
vernier = 0.00073142
vernier = 0.000975227
Gmin = 8.19596e-012
vernier = 0.0013003
Gmin = 8.17202e-012
vernier = 0.00173374
vernier = 0.000866868
vernier = 0.000433434
vernier = 0.000577912
Gmin = 8.16524e-012
vernier = 0.000770549
Gmin = 8.15109e-012
vernier = 0.0010274
vernier = 0.00136986
vernier = 0.000684932
vernier = 0.000513699
Gmin = 8.1375e-012
vernier = 0.000684932
Gmin = 8.12497e-012
vernier = 0.000913242
vernier = 0.00121766
Gmin = 8.10398e-012
vernier = 0.00162354
vernier = 0.00081177
vernier = 0.000405885
Gmin = 8.09494e-012
vernier = 0.00054118
vernier = 0.000721573
Gmin = 8.08253e-012
vernier = 0.000962098
vernier = 0.0012828
Gmin = 8.0628e-012
vernier = 0.00171039
vernier = 0.000855197
vernier = 0.000427599
Gmin = 8.04988e-012
vernier = 0.000570131
vernier = 0.000760175
Gmin = 8.03822e-012
vernier = 0.00101357
Gmin = 8.01992e-012
vernier = 0.00135142
vernier = 0.000675711
vernier = 0.000506783
Gmin = 8.00435e-012
vernier = 0.000675711
vernier = 0.000900947
Gmin = 7.99141e-012
vernier = 0.00120126
Gmin = 7.97044e-012
vernier = 0.00160168
vernier = 0.000800842
vernier = 0.000400421
vernier = 0.000533894
Gmin = 7.963e-012
vernier = 0.000711859
Gmin = 7.95061e-012
vernier = 0.000949145
vernier = 0.00126553
vernier = 0.000632763
Gmin = 7.93537e-012
vernier = 0.000474572
vernier = 0.000632763
Gmin = 7.92565e-012
vernier = 0.000843684
vernier = 0.00112491
Gmin = 7.90868e-012
vernier = 0.00149988
vernier = 0.000749941
vernier = 0.000562456
Gmin = 7.89645e-012
vernier = 0.000749941
vernier = 0.000999921
Gmin = 7.88142e-012
vernier = 0.00133323
vernier = 0.000666614
vernier = 0.00049996
Gmin = 7.87059e-012
vernier = 0.000666613
vernier = 0.000888818
Gmin = 7.85727e-012
vernier = 0.00118509
Gmin = 7.83635e-012
vernier = 0.00158012
vernier = 0.00079006
vernier = 0.000592545
vernier = 0.00079006
Gmin = 7.82745e-012
vernier = 0.00105341
Gmin = 7.80893e-012
vernier = 0.00140455
vernier = 0.000702275
vernier = 0.000526706
vernier = 0.000702275
Gmin = 7.80105e-012
vernier = 0.000936366
Gmin = 7.78463e-012
vernier = 0.00124849
vernier = 0.00166465
vernier = 0.000832325
vernier = 0.000416162
Gmin = 7.76926e-012
vernier = 0.000554883
Gmin = 7.75957e-012
vernier = 0.000739844
vernier = 0.000986458
Gmin = 7.74332e-012
vernier = 0.00131528
vernier = 0.000657639
vernier = 0.000493229
Gmin = 7.73473e-012
vernier = 0.000657639
vernier = 0.000876851
Gmin = 7.72033e-012
vernier = 0.00116913
vernier = 0.00155885
vernier = 0.000779423
Gmin = 7.70343e-012
vernier = 0.000584567
vernier = 0.000779423
Gmin = 7.69181e-012
vernier = 0.00103923
vernier = 0.00138564
vernier = 0.00069282
Gmin = 7.67684e-012
vernier = 0.000519615
vernier = 0.00069282
Gmin = 7.66654e-012
vernier = 0.000923759
vernier = 0.00123168
Gmin = 7.64856e-012
vernier = 0.00164224
vernier = 0.000821119
vernier = 0.000410559
Gmin = 7.6368e-012
vernier = 0.000547413
vernier = 0.000729883
Gmin = 7.62618e-012
vernier = 0.000973177
Gmin = 7.6095e-012
vernier = 0.00129757
vernier = 0.00173009
vernier = 0.000865046
vernier = 0.000432523
Gmin = 7.59389e-012
vernier = 0.000576697
Gmin = 7.58404e-012
vernier = 0.000768929
vernier = 0.00102524
Gmin = 7.56754e-012
vernier = 0.00136699
vernier = 0.000683493
vernier = 0.000512619
Gmin = 7.55881e-012
vernier = 0.000683492
vernier = 0.000911323
Gmin = 7.54419e-012
vernier = 0.0012151
vernier = 0.000607548
vernier = 0.000455661
Gmin = 7.53646e-012
vernier = 0.000607548
vernier = 0.000810064
Gmin = 7.5235e-012
vernier = 0.00108009
vernier = 0.00144011
vernier = 0.000720057
Gmin = 7.50828e-012
vernier = 0.000540043
vernier = 0.000720057
Gmin = 7.49781e-012
vernier = 0.000960075
vernier = 0.0012801
Gmin = 7.47954e-012
vernier = 0.00064005
vernier = 0.000480037
vernier = 0.00064005
Gmin = 7.47266e-012
vernier = 0.000853399
Gmin = 7.45833e-012
vernier = 0.00113787
vernier = 0.00151715
vernier = 0.000758577
vernier = 0.000568933
Gmin = 7.44456e-012
vernier = 0.000758577
Gmin = 7.43186e-012
vernier = 0.00101144
vernier = 0.00134858
vernier = 0.00067429
vernier = 0.000505718
Gmin = 7.41966e-012
vernier = 0.00067429
Gmin = 7.40841e-012
vernier = 0.000899053
vernier = 0.00119874
Gmin = 7.38957e-012
vernier = 0.00159832
vernier = 0.000799158
vernier = 0.000599368
Gmin = 7.37961e-012
vernier = 0.000799158
vernier = 0.00106554
Gmin = 7.36292e-012
vernier = 0.00142072
vernier = 0.000710362
vernier = 0.000532771
Gmin = 7.3541e-012
vernier = 0.000710362
vernier = 0.000947149
Gmin = 7.33931e-012
vernier = 0.00126286
vernier = 0.000631432
vernier = 0.000473574
Gmin = 7.3315e-012
vernier = 0.000631432
vernier = 0.000841909
Gmin = 7.31839e-012
vernier = 0.00112255
vernier = 0.00149673
vernier = 0.000748364
Gmin = 7.30301e-012
vernier = 0.000561273
vernier = 0.000748363
Gmin = 7.29243e-012
vernier = 0.000997818
vernier = 0.00133042
vernier = 0.000665212
Gmin = 7.2788e-012
vernier = 0.000498909
vernier = 0.000665211
Gmin = 7.26943e-012
vernier = 0.000886948
vernier = 0.0011826
Gmin = 7.25306e-012
vernier = 0.0015768
vernier = 0.000788398
vernier = 0.000591299
Gmin = 7.24128e-012
vernier = 0.000788398
vernier = 0.0010512
Gmin = 7.22678e-012
vernier = 0.0014016
vernier = 0.000700798
vernier = 0.000525598
Gmin = 7.21634e-012
vernier = 0.000700798
vernier = 0.000934397
Gmin = 7.2035e-012
vernier = 0.00124586
Gmin = 7.18334e-012
vernier = 0.00166115
vernier = 0.000830574
vernier = 0.000415287
vernier = 0.000553716
Gmin = 7.17763e-012
vernier = 0.000738288
Gmin = 7.16571e-012
vernier = 0.000984384
vernier = 0.00131251
vernier = 0.000656256
vernier = 0.000492192
Gmin = 7.15426e-012
vernier = 0.000656255
Gmin = 7.14371e-012
vernier = 0.000875007
vernier = 0.00116668
vernier = 0.000583338
vernier = 0.000437503
Gmin = 7.13226e-012
vernier = 0.000583338
Gmin = 7.12316e-012
vernier = 0.000777783
vernier = 0.00103704
Gmin = 7.10829e-012
vernier = 0.00138273
vernier = 0.000691363
vernier = 0.000518522
Gmin = 7.09908e-012
vernier = 0.000691363
vernier = 0.000921817
Gmin = 7.08591e-012
vernier = 0.00122909
vernier = 0.000614544
vernier = 0.000460908
Gmin = 7.07775e-012
vernier = 0.000614544
vernier = 0.000819392
Gmin = 7.06607e-012
vernier = 0.00109252
vernier = 0.0014567
Gmin = 7.0476e-012
vernier = 0.000728348
vernier = 0.000546261
vernier = 0.000728348
Gmin = 7.04151e-012
vernier = 0.00097113
vernier = 0.00129484
Gmin = 7.02514e-012
vernier = 0.00064742
vernier = 0.000485565
vernier = 0.00064742
Gmin = 7.01975e-012
vernier = 0.000863226
vernier = 0.00115097
Gmin = 7.00524e-012
vernier = 0.000575484
vernier = 0.000431613
Gmin = 6.99492e-012
vernier = 0.000575484
vernier = 0.000767312
Gmin = 6.9847e-012
vernier = 0.00102308
Gmin = 6.96864e-012
vernier = 0.00136411
vernier = 0.000682054
vernier = 0.000511541
vernier = 0.000682054
Gmin = 6.96181e-012
vernier = 0.000909405
Gmin = 6.94758e-012
vernier = 0.00121254
vernier = 0.00060627
vernier = 0.000454703
Gmin = 6.93549e-012
vernier = 0.00060627
vernier = 0.00080836
Gmin = 6.92542e-012
vernier = 0.00107781
Gmin = 6.90911e-012
vernier = 0.00143708
vernier = 0.000718542
vernier = 0.000538906
vernier = 0.000718541
Gmin = 6.90136e-012
vernier = 0.000958055
Gmin = 6.88691e-012
vernier = 0.00127741
vernier = 0.000638703
vernier = 0.000479027
Gmin = 6.87895e-012
vernier = 0.000638703
vernier = 0.000851604
Gmin = 6.86651e-012
vernier = 0.00113547
vernier = 0.00151396
vernier = 0.000756981
Gmin = 6.85191e-012
vernier = 0.000567736
vernier = 0.000756981
Gmin = 6.84187e-012
vernier = 0.00100931
vernier = 0.00134574
vernier = 0.000672871
Gmin = 6.82893e-012
vernier = 0.000504653
vernier = 0.000672871
Gmin = 6.82004e-012
vernier = 0.000897161
vernier = 0.00119621
Gmin = 6.80451e-012
vernier = 0.000598107
vernier = 0.000448581
vernier = 0.000598107
Gmin = 6.79764e-012
vernier = 0.000797476
Gmin = 6.7858e-012
vernier = 0.0010633
vernier = 0.00141773
vernier = 0.000708867
vernier = 0.00053165
Gmin = 6.77363e-012
vernier = 0.000708867
Gmin = 6.76314e-012
vernier = 0.000945156
vernier = 0.00126021
vernier = 0.000630104
vernier = 0.000472578
Gmin = 6.75236e-012
vernier = 0.000630104
Gmin = 6.74306e-012
vernier = 0.000840138
vernier = 0.00112018
Gmin = 6.72785e-012
vernier = 0.00149358
vernier = 0.000746789
vernier = 0.000560092
Gmin = 6.71844e-012
vernier = 0.000746789
vernier = 0.000995718
Gmin = 6.70497e-012
vernier = 0.00132762
vernier = 0.000663812
vernier = 0.000497859
Gmin = 6.69663e-012
vernier = 0.000663812
vernier = 0.000885082
Gmin = 6.6847e-012
vernier = 0.00118011
vernier = 0.000590055
vernier = 0.000442541
Gmin = 6.67731e-012
vernier = 0.000590054
vernier = 0.000786739
Gmin = 6.66673e-012
vernier = 0.00104899
vernier = 0.00139865
Gmin = 6.65e-012
vernier = 0.000699323
vernier = 0.000524492
vernier = 0.000699323
Gmin = 6.64448e-012
vernier = 0.00093243
vernier = 0.00124324
Gmin = 6.62965e-012
vernier = 0.00062162
vernier = 0.000466215
vernier = 0.00062162
Gmin = 6.62476e-012
vernier = 0.000828826
vernier = 0.0011051
Gmin = 6.61162e-012
vernier = 0.000552551
vernier = 0.000414413
Gmin = 6.60454e-012
vernier = 0.000552551
vernier = 0.000736734
Gmin = 6.59421e-012
vernier = 0.000982312
vernier = 0.00130975
vernier = 0.000654874
Gmin = 6.58208e-012
vernier = 0.000491156
vernier = 0.000654874
Gmin = 6.57374e-012
vernier = 0.000873165
vernier = 0.00116422
vernier = 0.00058211
Gmin = 6.56298e-012
vernier = 0.000436583
vernier = 0.00058211
Gmin = 6.55559e-012
vernier = 0.000776146
vernier = 0.00103486
Gmin = 6.54267e-012
vernier = 0.00137982
vernier = 0.000689908
vernier = 0.000517431
Gmin = 6.53337e-012
vernier = 0.000689907
vernier = 0.000919876
Gmin = 6.52192e-012
vernier = 0.0012265
vernier = 0.000613251
vernier = 0.000459938
Gmin = 6.51243e-012
vernier = 0.000613251
vernier = 0.000817667
Gmin = 6.50287e-012
vernier = 0.00109022
Gmin = 6.48738e-012
vernier = 0.00145363
vernier = 0.000726815
vernier = 0.000545111
vernier = 0.000726815
Gmin = 6.48002e-012
vernier = 0.000969086
Gmin = 6.4663e-012
vernier = 0.00129211
vernier = 0.000646057
vernier = 0.000484543
vernier = 0.000646057
Gmin = 6.45977e-012
vernier = 0.000861409
Gmin = 6.44761e-012
vernier = 0.00114855
vernier = 0.000574273
vernier = 0.000430705
Gmin = 6.43975e-012
vernier = 0.000574273
vernier = 0.000765697
Gmin = 6.42982e-012
vernier = 0.00102093
vernier = 0.00136124
Gmin = 6.41411e-012
vernier = 0.000680619
vernier = 0.000510464
vernier = 0.000680619
Gmin = 6.40893e-012
vernier = 0.000907491
vernier = 0.00120999
Gmin = 6.39502e-012
vernier = 0.000604994
vernier = 0.000453746
vernier = 0.000604994
Gmin = 6.38946e-012
vernier = 0.000806658
Gmin = 6.37787e-012
vernier = 0.00107554
vernier = 0.00143406
vernier = 0.000717029
vernier = 0.000537772
Gmin = 6.36674e-012
vernier = 0.000717029
Gmin = 6.35647e-012
vernier = 0.000956039
vernier = 0.00127472
vernier = 0.000637359
vernier = 0.000478019
Gmin = 6.34661e-012
vernier = 0.000637359
Gmin = 6.33751e-012
vernier = 0.000849811
vernier = 0.00113308
Gmin = 6.32227e-012
vernier = 0.00151078
vernier = 0.000755388
vernier = 0.000566541
Gmin = 6.31422e-012
vernier = 0.000755387
vernier = 0.00100718
Gmin = 6.30072e-012
vernier = 0.00134291
vernier = 0.000671455
vernier = 0.000503591
Gmin = 6.29359e-012
vernier = 0.000671455
vernier = 0.000895273
Gmin = 6.28163e-012
vernier = 0.0011937
vernier = 0.000596849
vernier = 0.000447636
Gmin = 6.27413e-012
vernier = 0.000596848
vernier = 0.000795798
Gmin = 6.26408e-012
vernier = 0.00106106
vernier = 0.000530532
Gmin = 0
Gmin stepping failed

Starting source stepping with srcstepmethod=0
Source Step = 3.0303%
Source Step = 33.3333%
Source Step = 44.697%
Source Step = 49.2424%
Source Step = 51.1364%
Source Step = 53.0303%
Source Step = 54.9242%
Source Step = 56.8182%
vernier = 0.09375
Source Step = 58.286%
Source Step = 58.9962%
Source Step = 59.7064%
Source Step = 60.4167%
Source Step = 61.1269%
vernier = 0.0351563
Source Step = 61.8726%
Source Step = 62.5118%
Source Step = 62.7782%
Source Step = 63.0445%
Source Step = 63.3108%
Source Step = 63.5772%
vernier = 0.0131836
Source Step = 63.8835%
Source Step = 64.283%
Source Step = 64.6825%
Source Step = 65.082%
Source Step = 65.4815%
vernier = 0.0197754
Source Step = 65.9209%
Source Step = 66.5202%
Source Step = 66.655%
Source Step = 66.8048%
Source Step = 66.9546%
Source Step = 67.1045%
Source Step = 67.2543%
vernier = 0.00741577
Source Step = 67.464%
Source Step = 67.6887%
Source Step = 67.9134%
Source Step = 68.1382%
Source Step = 68.3629%
vernier = 0.0111237
Source Step = 68.6663%
Source Step = 69.0033%
Source Step = 69.3404%
Source Step = 69.6775%
Source Step = 70.0146%
vernier = 0.0166855
Source Step = 70.2126%
Source Step = 70.339%
Source Step = 70.4654%
Source Step = 70.5918%
Source Step = 70.7182%
vernier = 0.00625706
Source Step = 70.8699%
Source Step = 71.0595%
Source Step = 71.2491%
Source Step = 71.4387%
Source Step = 71.6284%
vernier = 0.00938559
Source Step = 71.8464%
Source Step = 71.9744%
Source Step = 72.0455%
Source Step = 72.1166%
Source Step = 72.1877%
Source Step = 72.2588%
vernier = 0.00351959
Source Step = 72.3477%
Source Step = 72.4543%
Source Step = 72.561%
Source Step = 72.6676%
Source Step = 72.7743%
vernier = 0.00527939
Source Step = 72.9023%
Source Step = 73.0623%
Source Step = 73.2222%
Source Step = 73.3822%
Source Step = 73.5422%
vernier = 0.00791909
Source Step = 73.6662%
Source Step = 73.7262%
Source Step = 73.7862%
Source Step = 73.8462%
Source Step = 73.9062%
vernier = 0.00296966
Source Step = 73.9692%
Source Step = 74.0592%
Source Step = 74.1491%
Source Step = 74.2391%
Source Step = 74.3291%
Source Step = 74.4191%
vernier = 0.00445449
Source Step = 74.5541%
Source Step = 74.6891%
Source Step = 74.8241%
Source Step = 74.959%
Source Step = 75.094%
vernier = 0.00668173
Source Step = 75.148%
Source Step = 75.1986%
Source Step = 75.2493%
Source Step = 75.2999%
Source Step = 75.3505%
vernier = 0.00250565
Source Step = 75.4188%
Source Step = 75.4948%
Source Step = 75.5707%
Source Step = 75.6466%
Source Step = 75.7226%
vernier = 0.00375847
Source Step = 75.8213%
Source Step = 75.9352%
Source Step = 76.049%
Source Step = 76.1629%
Source Step = 76.2768%
vernier = 0.00563771
Source Step = 76.3509%
Source Step = 76.3936%
Source Step = 76.4363%
Source Step = 76.479%
Source Step = 76.5217%
vernier = 0.00211414
Source Step = 76.5708%
Source Step = 76.6349%
Source Step = 76.6989%
Source Step = 76.763%
Source Step = 76.8271%
vernier = 0.00317121
Source Step = 76.8976%
Source Step = 76.9936%
Source Step = 77.0897%
Source Step = 77.1858%
Source Step = 77.2819%
vernier = 0.00475682
Source Step = 77.3828%
vernier = 0.0011892
Source Step = 77.4045%
Source Step = 77.4405%
Source Step = 77.4765%
Source Step = 77.5126%
Source Step = 77.5486%
vernier = 0.00178381
Source Step = 77.6009%
Source Step = 77.6549%
Source Step = 77.709%
Source Step = 77.763%
Source Step = 77.8171%
vernier = 0.00267571
Source Step = 77.8928%
Source Step = 77.9738%
Source Step = 78.0549%
Source Step = 78.136%
Source Step = 78.2171%
vernier = 0.00401357
Source Step = 78.2597%
Source Step = 78.2901%
Source Step = 78.3205%
Source Step = 78.3509%
Source Step = 78.3813%
vernier = 0.00150509
Source Step = 78.4193%
Source Step = 78.4649%
Source Step = 78.5105%
Source Step = 78.5561%
Source Step = 78.6017%
vernier = 0.00225763
Source Step = 78.6565%
Source Step = 78.7249%
Source Step = 78.7933%
Source Step = 78.8617%
Source Step = 78.9301%
vernier = 0.00338645
Source Step = 79.0088%
Source Step = 79.1114%
Source Step = 79.214%
Source Step = 79.3166%
Source Step = 79.3551%
Source Step = 79.3808%
Source Step = 79.4064%
Source Step = 79.4321%
Source Step = 79.4577%
vernier = 0.00126992
Source Step = 79.4911%
Source Step = 79.5296%
Source Step = 79.5681%
Source Step = 79.6065%
Source Step = 79.645%
vernier = 0.00190488
Source Step = 79.6931%
Source Step = 79.7508%
Source Step = 79.8086%
Source Step = 79.8663%
Source Step = 79.924%
vernier = 0.00285731
Source Step = 79.9933%
Source Step = 80.0799%
Source Step = 80.1665%
Source Step = 80.253%
Source Step = 80.3396%
vernier = 0.00428597
Source Step = 80.4067%
Source Step = 80.4392%
Source Step = 80.4717%
Source Step = 80.5041%
Source Step = 80.5366%
vernier = 0.00160724
Source Step = 80.5707%
Source Step = 80.6194%
Source Step = 80.6681%
Source Step = 80.7168%
Source Step = 80.7655%
Source Step = 80.8142%
vernier = 0.00241086
Source Step = 80.8873%
Source Step = 80.9603%
Source Step = 81.0334%
Source Step = 81.1064%
Source Step = 81.1795%
vernier = 0.00361629
Source Step = 81.2087%
Source Step = 81.2361%
Source Step = 81.2635%
Source Step = 81.2909%
Source Step = 81.3183%
vernier = 0.00135611
Source Step = 81.3553%
Source Step = 81.3964%
Source Step = 81.4375%
Source Step = 81.4786%
Source Step = 81.5197%
vernier = 0.00203416
Source Step = 81.5731%
Source Step = 81.6347%
Source Step = 81.6964%
Source Step = 81.758%
Source Step = 81.8197%
vernier = 0.00305124
Source Step = 81.8967%
Starting source stepping with srcstepmethod=1
Source Step = 3.0303%
Source Step = 33.3333%
Source Step = 63.6364%
Source Step = 93.9394%
Source Step = 100%
Source Step = 100%
Source Step = 99.1894%
vernier = 0.015625
Source Step = 99.0237%
Source Step = 99.0533%
Source Step = 99.0829%
Source Step = 99.1125%
Source Step = 99.142%
Source Step = 99.1716%
Source Step = 99.2012%
Source Step = 99.2308%
Source Step = 99.2604%
Source Step = 99.29%
Source Step = 99.3196%
Source Step = 99.3492%
Source Step = 99.3788%
Source Step = 99.4084%
Source Step = 99.438%
Source Step = 99.4676%
Source Step = 99.4972%
Source Step = 99.5268%
Source Step = 99.5563%
Source Step = 99.5859%
Source Step = 99.6155%
Source Step = 99.6451%
Source Step = 99.6747%
Source Step = 99.7043%
Source Step = 99.7339%
Source Step = 99.7635%
Source Step = 99.7931%
Source Step = 99.8227%
Source Step = 99.8523%
Source Step = 99.8819%
Source Step = 99.9115%
Source Step = 99.9411%
Source Step = 99.9706%
Source Step = 100%
Source Step = 100%
Source Step = 100%
Source Step = 100%
Source Step = 100%
Source Step = 100%
Source Step = 100%
Source Step = 100%
Source Step = 100%
Source Step = 100%
Source Step = 100%
Source Step = 100%
Source Step = 100%
Source Step = 100%
Source Step = 100%
Source Step = 100%
Source Step = 100%
Source Step = 100%
Source Step = 100%
Source Step = 100%
Source Step = 100%
Source Step = 100%
Source Step = 100%
Source Step = 100%
Source Step = 100%
Source Step = 100%
Source Step = 100%
Source Step = 100%
Source Step = 100%
Source Step = 100%
Source Step = 100%
Source Step = 100%
Source Step = 100%
Source Step = 100%
Source Step = 100%
Source Step = 100%
Source Step = 100%
Source Step = 100%
Source Step = 100%
Source Step = 100%
Source Step = 100%
Source Step = 100%
Source Step = 100%
Source Step = 100%
Source Step = 100%
Source Step = 100%
Source Step = 100%
Source Step = 100%
Source Step = 100%
Source Step = 100%
Source Step = 100%
Source Step = 100%
Source Step = 100%
Source Step = 100%
Source Step = 100%
Source Step = 100%
Source Step = 100%
Source Step = 100%
Source Step = 100%
Source Step = 100%
Source Step = 100%
Source Step = 100%
Source Step = 100%
Source Step = 100%
Source Step = 100%
Source Step = 100%
Source Step = 100%
Source Step = 100%
Source Step = 100%
Source Step = 100%
Source Step = 100%
Source Step = 100%
Source Step = 100%
Source Step = 100%
Source Step = 100%
Source Step = 100%
Source Step = 100%
Source Step = 100%
Source Step = 100%
Source Step = 100%
Source Step = 100%
Source Step = 100%
Source Step = 100%
Source Step = 100%
Source Step = 100%
Source Step = 100%
Source Step = 100%
Source Step = 100%
Source Step = 100%
Source Step = 100%
Source Step = 100%
Source Step = 100%
Source Step = 100%
Source Step = 100%
Source Step = 100%
Source Step = 100%
Source Step = 100%
Source Step = 100%
Source Step = 100%
Source Step = 100%
Source Step = 100%
Source Step = 100%
Source Step = 100%
Source Step = 100%
Source Step = 100%
Source Step = 100%
Source Step = 100%
Source Step = 100%
Source Step = 100%
Source Step = 100%
Source Step = 100%
Source Step = 100%
Source Step = 100%
Source Step = 100%
Source Step = 100%
Source Step = 100%
Source Step = 100%
Source Step = 100%
Source Step = 100%
Source Step = 100%
Source Step = 100%
Source Step = 100%
Source Step = 100%
Source Step = 100%
Source Step = 100%
Source Step = 100%
Source Step = 100%
Source Step = 100%
Source Step = 100%
Source Step = 100%
Source Step = 100%
Source Step = 100%
Source Step = 100%
Source Step = 100%
Source Step = 100%
Source Step = 100%
Source Step = 100%
Source Step = 100%
Source Step = 100%
Source Step = 100%
Source Step = 100%
Source Step = 100%
Source Step = 100%
Source Step = 100%
Source Step = 100%
Source Step = 100%
Source Step = 100%
Source Step = 100%
Source Step = 100%
Source Step = 100%
Source Step = 100%
Source Step = 100%
Source Step = 100%
Source Step = 100%
Source Step = 100%
Source Step = 100%
Source Step = 100%
Source Step = 100%
Source Step = 100%
Source Step = 100%
Source Step = 100%
Source Step = 100%
Source Step = 100%
Source Step = 100%
Source Step = 100%
Source Step = 100%
Source Step = 100%
Source Step = 100%
Source Step = 100%
Source Step = 100%
Source Step = 100%
Source Step = 100%
Source Step = 100%
Source Step = 100%
Source Step = 100%
Source Step = 100%
Source Step = 100%
Source Step = 100%
Source Step = 100%
Source Step = 100%
Source Step = 100%
Source Step = 100%
Source Step = 100%
Source Step = 100%
Source Step = 100%
Source Step = 100%
Source Step = 100%
Source Step = 100%
Source Step = 100%
Source Step = 100%
Source Step = 100%
Source Step = 100%
Source Step = 100%
Source Step = 100%
Source Step = 100%
Source Step = 100%
Source Step = 100%
Source Step = 100%
Source Step = 100%
Source Step = 100%
Source Step = 100%
Source Step = 100%
Source Step = 100%
Source Step = 100%
Source Step = 100%
Source Step = 100%
Source Step = 100%
Source Step = 100%
Source Step = 100%
Source Step = 100%
Source Step = 100%
Source Step = 100%
Source Step = 100%
Source Step = 100%
Source Step = 100%
Source Step = 100%
Source Step = 100%
Source Step = 100%
Source Step = 100%
Source Step = 100%
Source Step = 100%
Source Step = 100%
Source Step = 100%
Source Step = 100%
Source Step = 100%
Source Step = 100%
Source Step = 100%
Source Step = 100%
Source Step = 100%
Source Step = 100%
Source Step = 100%
Source Step = 100%
Source Step = 100%
Source Step = 100%
Source Step = 100%
Source Step = 100%
Source Step = 100%
Source Step = 100%
Source Step = 100%
Source Step = 100%
Source Step = 100%
Source Step = 100%
Source Step = 100%
Source Step = 100%
Source Step = 100%
Source Step = 100%
Source Step = 100%
Source Step = 100%
Source Step = 100%
Source Step = 100%
Source Step = 100%
Source Step = 100%
Source Step = 100%
Source Step = 100%
Source Step = 100%
Source Step = 100%
Source Step = 100%
Source Step = 100%
Source Step = 100%
Source Step = 100%
Source Step = 100%
Source Step = 100%
Source Step = 100%
Source Step = 100%
Source Step = 100%
Source Step = 100%
Source Step = 100%
Source Step = 100%
Source Step = 100%
Source Step = 100%
Source Step = 100%
Source Step = 100%
Source Step = 100%
Source Step = 100%
Source Step = 100%
Source Step = 100%
Source Step = 100%
Source Step = 100%
Source Step = 100%
Source Step = 100%
Source Step = 100%
Source Step = 100%
Source Step = 100%
Source Step = 100%
Source Step = 100%
Source Step = 100%
Source Step = 100%
Source Step = 100%
Source Step = 100%
Source Step = 100%
Source Step = 100%
Source Step = 100%
Source Step = 100%
Source Step = 100%
Source Step = 100%
Source Step = 100%
Source Step = 100%
Source Step = 100%
Source Step = 100%
Source Step = 100%
Source Step = 100%
Source Step = 100%
Source Step = 100%
Source Step = 100%
Source Step = 100%
Source Step = 100%
Source Step = 100%
Source Step = 100%
Source Step = 100%
Source Step = 100%
Source Step = 100%
Source Step = 100%
Source Step = 100%
Source Step = 100%
Source Step = 100%
Source Step = 100%
Source Step = 100%
Source Step = 100%
Source Step = 100%
Source Step = 100%
Source Step = 100%
Source Step = 100%
Source Step = 100%
Source Step = 100%
Source Step = 100%
Source Step = 100%
Source Step = 100%
Source Step = 100%
Source Step = 100%
Source Step = 100%
Source Step = 100%
Source Step = 100%
Source Step = 100%
Source Step = 100%
Source Step = 100%
Source Step = 100%
Source Step = 100%
Source Step = 100%
Source Step = 100%
Source Step = 100%
Source Step = 100%
Source Step = 100%
Source Step = 100%
Source Step = 100%
Source Step = 100%
Source Step = 100%
Source Step = 100%
Source Step = 100%
Source Step = 100%
Source Step = 100%
Source Step = 100%
Source Step = 100%
Source Step = 100%
Source Step = 100%
Source Step = 100%
Source Step = 100%
Source Step = 100%
Source Step = 100%
Source Step = 100%
Source Step = 100%
Source Step = 100%
Source Step = 100%
Source Step = 100%
Source Step = 100%
Source Step = 100%
Source Step = 100%
Source Step = 100%
Source Step = 100%
Source Step = 100%
Source Step = 100%
Source Step = 100%
Source Step = 100%
Source Step = 100%
Source Step = 100%
Source Step = 100%
Source Step = 100%
Source Step = 100%
Source Step = 100%
Source Step = 100%
Source Step = 100%
Source Step = 100%
Source Step = 100%
Source Step = 100%
Source Step = 100%
Source Step = 100%
Source Step = 100%
Source Step = 100%
Source Step = 100%
Source Step = 100%
Source Step = 100%
Source Step = 100%
Source Step = 100%
Source Step = 100%
Source Step = 100%
Source Step = 100%
Source Step = 100%
Source Step = 100%
Source Step = 100%
Source Step = 100%
Source Step = 100%
Source Step = 100%
Source Step = 100%
Source Step = 100%
Source Step = 100%
Source Step = 100%
Source Step = 100%
Source Step = 100%
Source Step = 100%
Source Step = 100%
Source Step = 100%
Source Step = 100%
Source Step = 100%
Source Step = 100%
Source Step = 100%
Source Step = 100%
Source Step = 100%
Source Step = 100%
Source Step = 100%
Source Step = 100%
Source Step = 100%
Source Step = 100%
Source Step = 100%
Source Step = 100%
Source Step = 100%
Source Step = 100%
Source Step = 100%
Source Step = 100%
Source Step = 100%
Source Step = 100%
Source Step = 100%
Source Step = 100%
Source Step = 100%
Source Step = 100%
Source Step = 100%
Source Step = 100%
Source Step = 100%
Source Step = 100%
Source Step = 100%
Source Step = 100%
Source Step = 100%
Source Step = 100%
Source Step = 100%
Source Step = 100%
Source Step = 100%
Source Step = 100%
Source Step = 100%
Source Step = 100%
Source Step = 100%
Source Step = 100%
Source Step = 100%
Source Step = 100%
Source Step = 100%
Source Step = 100%
Source Step = 100%
Source Step = 100%
Source Step = 100%
Source Step = 100%
Source Step = 100%
Source Step = 100%
Source Step = 100%
Source Step = 100%
Source Step = 100%
Source Step = 100%
Source Step = 100%
Source Step = 100%
Source Step = 100%
Source Step = 100%
Source Step = 100%
Source Step = 100%
Source Step = 100%
Source Step = 100%
Source Step = 100%
Source Step = 100%
Source Step = 100%
Source Step = 100%
Source Step = 100%
Source Step = 100%
Source Step = 100%
Source Step = 100%
Source Step = 100%
Source Step = 100%
Source Step = 100%
Source Step = 100%
Source Step = 100%
Source Step = 100%
Source Step = 100%
Source Step = 100%
Source Step = 100%
Source Step = 100%
Source Step = 100%
Source Step = 100%
Source Step = 100%
Source Step = 100%
Source Step = 100%
Source Step = 100%
Source Step = 100%
Source Step = 100%
Source Step = 100%
Source Step = 100%
Source Step = 100%
Source Step = 100%
Source Step = 100%
Source Step = 100%
Source Step = 100%
Source Step = 100%
Source Step = 100%
Source Step = 100%
Source Step = 100%
Source Step = 100%
Source Step = 100%
Source Step = 100%
Source Step = 100%
Source Step = 100%
Source Step = 100%
Source Step = 100%
Source Step = 100%
Source Step = 100%
Source Step = 100%
Source Step = 100%
Source Step = 100%
Source Step = 100%
Source Step = 100%
Source Step = 100%
Source Step = 100%
Source Step = 100%
Source Step = 100%
Source Step = 100%
Source Step = 100%
Source Step = 100%
Source Step = 100%
Source Step = 100%
Source Step = 100%
Source Step = 100%
Source Step = 100%
Source Step = 100%
Source Step = 100%
Source Step = 100%
Source Step = 100%
Source Step = 100%
Source Step = 100%
Source Step = 100%
Source Step = 100%
Source Step = 100%
Source Step = 100%
Source Step = 100%
Source Step = 100%
Source Step = 100%
Source Step = 100%
Source Step = 100%
Source Step = 100%
Source Step = 100%
Source Step = 100%
Source Step = 100%
Source Step = 100%
Source Step = 100%
Source Step = 100%
Source Step = 100%
Source Step = 100%
Source Step = 100%
Source Step = 100%
Source Step = 100%
Source Step = 100%
Source Step = 100%
Source Step = 100%
Source Step = 100%
Source Step = 100%
Source Step = 100%
Source Step = 100%
Source Step = 100%
Source Step = 100%
Source Step = 100%
Source Step = 100%
Source Step = 100%
Source Step = 100%
Source Step = 100%
Source Step = 100%
Source Step = 100%
Source Step = 100%
Source Step = 100%
Source Step = 100%
Source Step = 100%
Source Step = 100%
Source Step = 100%
Source Step = 100%
Source Step = 100%
Source Step = 100%
Source Step = 100%
Source Step = 100%
Source Step = 100%
Source Step = 100%
Source Step = 100%
Source Step = 100%
Source Step = 100%
Source Step = 100%
Source Step = 100%
Source Step = 100%
Source Step = 100%
Source Step = 100%
Source Step = 100%
Source Step = 100%
Source Step = 100%
Source Step = 100%
Source Step = 100%
Source Step = 100%
Source Step = 100%
Source Step = 100%
Source Step = 100%
Source Step = 100%
Source Step = 100%
Source Step = 100%
Source Step = 100%
Source Step = 100%
Source Step = 100%
Source Step = 100%
Source Step = 100%
Source Step = 100%
Source Step = 100%
Source Step = 100%
Source Step = 100%
Source Step = 100%
Source Step = 100%
Source Step = 100%
Source Step = 100%
Source Step = 100%
Source Step = 100%
Source Step = 100%
Source Step = 100%
Source Step = 100%
Source Step = 100%
Source Step = 100%
Source Step = 100%
Source Step = 100%
Source Step = 100%
Source Step = 100%
Source Step = 100%
Source Step = 100%
Source Step = 100%
Source Step = 100%
Source Step = 100%
Source Step = 100%
Source Step = 100%
Source Step = 100%
Source Step = 100%
Source Step = 100%
Source Step = 100%
Source Step = 100%
Source Step = 100%
Source Step = 100%
Source Step = 100%
Source Step = 100%
Source Step = 100%
Source Step = 100%
Source Step = 100%
Source Step = 100%
Source Step = 100%
Source Step = 100%
Source Step = 100%
Source Step = 100%
Source Step = 100%
Source Step = 100%
Source Step = 100%
Source Step = 100%
Source Step = 100%
Source Step = 100%
Source Step = 100%
Source Step = 100%
Source Step = 100%
Source Step = 100%
Source Step = 100%
Source Step = 100%
Source Step = 100%
Source Step = 100%
Source Step = 100%
Source Step = 100%
Source Step = 100%
Source Step = 100%
Source Step = 100%
Source Step = 100%
Source Step = 100%
Source Step = 100%
Source Step = 100%
Source Step = 100%
Source Step = 100%
Source Step = 100%
Source Step = 100%
Source Step = 100%
Source Step = 100%
Source Step = 100%
Source Step = 100%
Source Step = 100%
Source Step = 100%
Source Step = 100%
Source Step = 100%
Source Step = 100%
Source Step = 100%
Source Step = 100%
Source Step = 100%
Source Step = 100%
Source Step = 100%
Source Step = 100%
Source Step = 100%
Source Step = 100%
Source Step = 100%
Source Step = 100%
Source Step = 100%
Source Step = 100%
Source Step = 100%
Source Step = 100%
Source Step = 100%
Source Step = 100%
Source Step = 100%
Source Step = 100%
Source Step = 100%
Source Step = 100%
Source Step = 100%
Source Step = 100%
Source Step = 100%
Source Step = 100%
Source Step = 100%
Source Step = 100%
Source Step = 100%
Source Step = 100%
Source Step = 100%
Source Step = 100%
Source Step = 100%
Source Step = 100%
Source Step = 100%
Source Step = 100%
Source Step = 100%
Source Step = 100%
Source Step = 100%
Source Step = 100%
Source Step = 100%
Source Step = 100%
Source Step = 100%
Source Step = 100%
Source Step = 100%
Source Step = 100%
Source Step = 100%
Source Step = 100%
Source Step = 100%
Source Step = 100%
Source Step = 100%
Source Step = 100%
Source Step = 100%
Source Step = 100%
Source Step = 100%
Source Step = 100%
Source Step = 100%
Source Step = 100%
Source Step = 100%
Source Step = 100%
Source Step = 100%
Source Step = 100%
Source Step = 100%
Source Step = 100%
Source Step = 100%
Source Step = 100%
Source Step = 100%
Source Step = 100%
Source Step = 100%
Source Step = 100%
Source Step = 100%
Source Step = 100%
Source Step = 100%
Source Step = 100%
Source Step = 100%
Source Step = 100%
Source Step = 100%
Source Step = 100%
Source Step = 100%
Source Step = 100%
Source Step = 100%
Source Step = 100%
Source Step = 100%
Source Step = 100%
Source Step = 100%
Source Step = 100%
Source Step = 100%
Source Step = 100%
Source Step = 100%
Source Step = 100%
Source Step = 100%
Source Step = 100%
Source Step = 100%
Source Step = 100%
Source Step = 100%
Source Step = 100%
Source Step = 100%
Source Step = 100%
Source Step = 100%
Source Step = 100%
Source Step = 100%
Source Step = 100%
Source Step = 100%
Source Step = 100%
Source Step = 100%
Source Step = 100%
Source Step = 100%
Source Step = 100%
Source Step = 100%
Source Step = 100%
Source Step = 100%
Source Step = 100%
Source Step = 100%
Source Step = 100%
Source Step = 100%
Source Step = 100%
Source Step = 100%
Source Step = 100%
Source Step = 100%
Source Step = 100%
Source Step = 100%
Source Step = 100%
Source Step = 100%
Source Step = 100%
Source Step = 100%
Source Step = 100%
Source Step = 100%
Source Step = 100%
Source Step = 100%
Source Step = 100%
Source Step = 100%
Source Step = 100%
Source Step = 100%
Source Step = 100%
Source Step = 100%
Source Step = 100%
Source Step = 100%
Source Step = 100%
Source Step = 100%
Source Step = 100%
Source Step = 100%
Source Step = 100%
Source Step = 100%
Source Step = 100%
Source Step = 100%
Source Step = 100%
Source Step = 100%
Source Step = 100%
Source Step = 100%
Source Step = 100%
Source Step = 100%
Source Step = 100%
Source Step = 100%
Source Step = 100%
Source Step = 100%
Source Step = 100%
Source Step = 100%
Source Step = 100%
Source Step = 100%
Source Step = 100%
Source Step = 100%
Source Step = 100%
Source Step = 100%
Source Step = 100%
Source Step = 100%
Source Step = 100%
Source Step = 100%
Source Step = 100%
Source Step = 100%
Source Step = 100%
Source Step = 100%
Source Step = 100%
Source Step = 100%
Source Step = 100%
Source Step = 100%
Source Step = 100%
Source Step = 100%
Source Step = 100%
Source Step = 100%
Source Step = 100%
Source Step = 100%
Source Step = 100%
Source Step = 100%
Source Step = 100%
Source Step = 100%
Source Step = 100%
Source Step = 100%
Source Step = 100%
Source Step = 100%
Source Step = 100%
Source Step = 100%
Source Step = 100%
Source Step = 100%
Source Step = 100%
Source Step = 100%
Source Step = 100%
Source Step = 100%
Source Step = 100%
Source Step = 100%
Source Step = 100%
Source Step = 100%
Source stepping aborted.
Pseudo Transient failed in finding the operating point.
Fatal Error: Analysis Failed: Iteration limit reached
